
---------- Begin Simulation Statistics ----------
simSeconds                                   0.000143                       # Number of seconds simulated (Second)
simTicks                                    142983000                       # Number of ticks simulated (Tick)
finalTick                                   142983000                       # Number of ticks from beginning of simulation (restored from checkpoints and never reset) (Tick)
simFreq                                  1000000000000                       # The number of ticks per simulated second ((Tick/Second))
hostSeconds                                      0.60                       # Real time elapsed on the host (Second)
hostTickRate                                238893093                       # The number of ticks simulated per host second (ticks/s) ((Tick/Second))
hostMemory                                    8526484                       # Number of bytes of host memory used (Byte)
simInsts                                        77120                       # Number of instructions simulated (Count)
simOps                                         142299                       # Number of ops (including micro ops) simulated (Count)
hostInstRate                                   128834                       # Simulator instruction rate (inst/s) ((Count/Second))
hostOpRate                                     237717                       # Simulator op (including micro ops) rate (op/s) ((Count/Second))
system.clk_domain.clock                          1000                       # Clock period in ticks (Tick)
system.clk_domain.voltage_domain.voltage            1                       # Voltage in Volts (Volt)
system.cpu.numCycles                           142984                       # Number of cpu cycles simulated (Cycle)
system.cpu.numWorkItemsStarted                      0                       # Number of work items this cpu started (Count)
system.cpu.numWorkItemsCompleted                    0                       # Number of work items this cpu completed (Count)
system.cpu.instsAdded                          263506                       # Number of instructions added to the IQ (excludes non-spec) (Count)
system.cpu.nonSpecInstsAdded                      538                       # Number of non-speculative instructions added to the IQ (Count)
system.cpu.instsIssued                         230479                       # Number of instructions issued (Count)
system.cpu.squashedInstsIssued                   1093                       # Number of squashed instructions issued (Count)
system.cpu.squashedInstsExamined               121745                       # Number of squashed instructions iterated over during squash; mainly for profiling (Count)
system.cpu.squashedOperandsExamined            184701                       # Number of squashed operands that are examined and possibly removed from graph (Count)
system.cpu.squashedNonSpecRemoved                 502                       # Number of squashed non-spec instructions that were removed (Count)
system.cpu.numIssuedDist::samples              117922                       # Number of insts issued each cycle (Count)
system.cpu.numIssuedDist::mean               1.954504                       # Number of insts issued each cycle (Count)
system.cpu.numIssuedDist::stdev              2.594529                       # Number of insts issued each cycle (Count)
system.cpu.numIssuedDist::underflows                0      0.00%      0.00% # Number of insts issued each cycle (Count)
system.cpu.numIssuedDist::0                     64946     55.08%     55.08% # Number of insts issued each cycle (Count)
system.cpu.numIssuedDist::1                      6774      5.74%     60.82% # Number of insts issued each cycle (Count)
system.cpu.numIssuedDist::2                      6517      5.53%     66.35% # Number of insts issued each cycle (Count)
system.cpu.numIssuedDist::3                      6673      5.66%     72.01% # Number of insts issued each cycle (Count)
system.cpu.numIssuedDist::4                      6135      5.20%     77.21% # Number of insts issued each cycle (Count)
system.cpu.numIssuedDist::5                      7832      6.64%     83.85% # Number of insts issued each cycle (Count)
system.cpu.numIssuedDist::6                      9824      8.33%     92.18% # Number of insts issued each cycle (Count)
system.cpu.numIssuedDist::7                      5760      4.88%     97.07% # Number of insts issued each cycle (Count)
system.cpu.numIssuedDist::8                      3461      2.93%    100.00% # Number of insts issued each cycle (Count)
system.cpu.numIssuedDist::overflows                 0      0.00%    100.00% # Number of insts issued each cycle (Count)
system.cpu.numIssuedDist::min_value                 0                       # Number of insts issued each cycle (Count)
system.cpu.numIssuedDist::max_value                 8                       # Number of insts issued each cycle (Count)
system.cpu.numIssuedDist::total                117922                       # Number of insts issued each cycle (Count)
system.cpu.statFuBusy::No_OpClass                   0      0.00%      0.00% # attempts to use FU when none available (Count)
system.cpu.statFuBusy::IntAlu                    4878     89.69%     89.69% # attempts to use FU when none available (Count)
system.cpu.statFuBusy::IntMult                      0      0.00%     89.69% # attempts to use FU when none available (Count)
system.cpu.statFuBusy::IntDiv                       0      0.00%     89.69% # attempts to use FU when none available (Count)
system.cpu.statFuBusy::FloatAdd                     0      0.00%     89.69% # attempts to use FU when none available (Count)
system.cpu.statFuBusy::FloatCmp                     0      0.00%     89.69% # attempts to use FU when none available (Count)
system.cpu.statFuBusy::FloatCvt                     0      0.00%     89.69% # attempts to use FU when none available (Count)
system.cpu.statFuBusy::FloatMult                    0      0.00%     89.69% # attempts to use FU when none available (Count)
system.cpu.statFuBusy::FloatMultAcc                 0      0.00%     89.69% # attempts to use FU when none available (Count)
system.cpu.statFuBusy::FloatDiv                     0      0.00%     89.69% # attempts to use FU when none available (Count)
system.cpu.statFuBusy::FloatMisc                    0      0.00%     89.69% # attempts to use FU when none available (Count)
system.cpu.statFuBusy::FloatSqrt                    0      0.00%     89.69% # attempts to use FU when none available (Count)
system.cpu.statFuBusy::SimdAdd                      0      0.00%     89.69% # attempts to use FU when none available (Count)
system.cpu.statFuBusy::SimdAddAcc                   0      0.00%     89.69% # attempts to use FU when none available (Count)
system.cpu.statFuBusy::SimdAlu                     13      0.24%     89.92% # attempts to use FU when none available (Count)
system.cpu.statFuBusy::SimdCmp                      0      0.00%     89.92% # attempts to use FU when none available (Count)
system.cpu.statFuBusy::SimdCvt                      3      0.06%     89.98% # attempts to use FU when none available (Count)
system.cpu.statFuBusy::SimdMisc                     8      0.15%     90.13% # attempts to use FU when none available (Count)
system.cpu.statFuBusy::SimdMult                     0      0.00%     90.13% # attempts to use FU when none available (Count)
system.cpu.statFuBusy::SimdMultAcc                  0      0.00%     90.13% # attempts to use FU when none available (Count)
system.cpu.statFuBusy::SimdShift                    0      0.00%     90.13% # attempts to use FU when none available (Count)
system.cpu.statFuBusy::SimdShiftAcc                 0      0.00%     90.13% # attempts to use FU when none available (Count)
system.cpu.statFuBusy::SimdDiv                      0      0.00%     90.13% # attempts to use FU when none available (Count)
system.cpu.statFuBusy::SimdSqrt                     0      0.00%     90.13% # attempts to use FU when none available (Count)
system.cpu.statFuBusy::SimdFloatAdd                 0      0.00%     90.13% # attempts to use FU when none available (Count)
system.cpu.statFuBusy::SimdFloatAlu                 0      0.00%     90.13% # attempts to use FU when none available (Count)
system.cpu.statFuBusy::SimdFloatCmp                 0      0.00%     90.13% # attempts to use FU when none available (Count)
system.cpu.statFuBusy::SimdFloatCvt                 0      0.00%     90.13% # attempts to use FU when none available (Count)
system.cpu.statFuBusy::SimdFloatDiv                 0      0.00%     90.13% # attempts to use FU when none available (Count)
system.cpu.statFuBusy::SimdFloatMisc                0      0.00%     90.13% # attempts to use FU when none available (Count)
system.cpu.statFuBusy::SimdFloatMult                0      0.00%     90.13% # attempts to use FU when none available (Count)
system.cpu.statFuBusy::SimdFloatMultAcc             0      0.00%     90.13% # attempts to use FU when none available (Count)
system.cpu.statFuBusy::SimdFloatSqrt                0      0.00%     90.13% # attempts to use FU when none available (Count)
system.cpu.statFuBusy::SimdReduceAdd                0      0.00%     90.13% # attempts to use FU when none available (Count)
system.cpu.statFuBusy::SimdReduceAlu                0      0.00%     90.13% # attempts to use FU when none available (Count)
system.cpu.statFuBusy::SimdReduceCmp                0      0.00%     90.13% # attempts to use FU when none available (Count)
system.cpu.statFuBusy::SimdFloatReduceAdd            0      0.00%     90.13% # attempts to use FU when none available (Count)
system.cpu.statFuBusy::SimdFloatReduceCmp            0      0.00%     90.13% # attempts to use FU when none available (Count)
system.cpu.statFuBusy::SimdAes                      0      0.00%     90.13% # attempts to use FU when none available (Count)
system.cpu.statFuBusy::SimdAesMix                   0      0.00%     90.13% # attempts to use FU when none available (Count)
system.cpu.statFuBusy::SimdSha1Hash                 0      0.00%     90.13% # attempts to use FU when none available (Count)
system.cpu.statFuBusy::SimdSha1Hash2                0      0.00%     90.13% # attempts to use FU when none available (Count)
system.cpu.statFuBusy::SimdSha256Hash               0      0.00%     90.13% # attempts to use FU when none available (Count)
system.cpu.statFuBusy::SimdSha256Hash2              0      0.00%     90.13% # attempts to use FU when none available (Count)
system.cpu.statFuBusy::SimdShaSigma2                0      0.00%     90.13% # attempts to use FU when none available (Count)
system.cpu.statFuBusy::SimdShaSigma3                0      0.00%     90.13% # attempts to use FU when none available (Count)
system.cpu.statFuBusy::SimdPredAlu                  0      0.00%     90.13% # attempts to use FU when none available (Count)
system.cpu.statFuBusy::MemRead                    293      5.39%     95.51% # attempts to use FU when none available (Count)
system.cpu.statFuBusy::MemWrite                    68      1.25%     96.76% # attempts to use FU when none available (Count)
system.cpu.statFuBusy::FloatMemRead                 5      0.09%     96.86% # attempts to use FU when none available (Count)
system.cpu.statFuBusy::FloatMemWrite              171      3.14%    100.00% # attempts to use FU when none available (Count)
system.cpu.statFuBusy::IprAccess                    0      0.00%    100.00% # attempts to use FU when none available (Count)
system.cpu.statFuBusy::InstPrefetch                 0      0.00%    100.00% # attempts to use FU when none available (Count)
system.cpu.statIssuedInstType_0::No_OpClass         1222      0.53%      0.53% # Number of instructions issued per FU type, per thread (Count)
system.cpu.statIssuedInstType_0::IntAlu        179981     78.09%     78.62% # Number of instructions issued per FU type, per thread (Count)
system.cpu.statIssuedInstType_0::IntMult          251      0.11%     78.73% # Number of instructions issued per FU type, per thread (Count)
system.cpu.statIssuedInstType_0::IntDiv            36      0.02%     78.74% # Number of instructions issued per FU type, per thread (Count)
system.cpu.statIssuedInstType_0::FloatAdd           87      0.04%     78.78% # Number of instructions issued per FU type, per thread (Count)
system.cpu.statIssuedInstType_0::FloatCmp            0      0.00%     78.78% # Number of instructions issued per FU type, per thread (Count)
system.cpu.statIssuedInstType_0::FloatCvt            0      0.00%     78.78% # Number of instructions issued per FU type, per thread (Count)
system.cpu.statIssuedInstType_0::FloatMult            0      0.00%     78.78% # Number of instructions issued per FU type, per thread (Count)
system.cpu.statIssuedInstType_0::FloatMultAcc            0      0.00%     78.78% # Number of instructions issued per FU type, per thread (Count)
system.cpu.statIssuedInstType_0::FloatDiv            0      0.00%     78.78% # Number of instructions issued per FU type, per thread (Count)
system.cpu.statIssuedInstType_0::FloatMisc            0      0.00%     78.78% # Number of instructions issued per FU type, per thread (Count)
system.cpu.statIssuedInstType_0::FloatSqrt            0      0.00%     78.78% # Number of instructions issued per FU type, per thread (Count)
system.cpu.statIssuedInstType_0::SimdAdd            0      0.00%     78.78% # Number of instructions issued per FU type, per thread (Count)
system.cpu.statIssuedInstType_0::SimdAddAcc            0      0.00%     78.78% # Number of instructions issued per FU type, per thread (Count)
system.cpu.statIssuedInstType_0::SimdAlu          126      0.05%     78.84% # Number of instructions issued per FU type, per thread (Count)
system.cpu.statIssuedInstType_0::SimdCmp            0      0.00%     78.84% # Number of instructions issued per FU type, per thread (Count)
system.cpu.statIssuedInstType_0::SimdCvt          480      0.21%     79.05% # Number of instructions issued per FU type, per thread (Count)
system.cpu.statIssuedInstType_0::SimdMisc         1005      0.44%     79.48% # Number of instructions issued per FU type, per thread (Count)
system.cpu.statIssuedInstType_0::SimdMult            0      0.00%     79.48% # Number of instructions issued per FU type, per thread (Count)
system.cpu.statIssuedInstType_0::SimdMultAcc            0      0.00%     79.48% # Number of instructions issued per FU type, per thread (Count)
system.cpu.statIssuedInstType_0::SimdShift            0      0.00%     79.48% # Number of instructions issued per FU type, per thread (Count)
system.cpu.statIssuedInstType_0::SimdShiftAcc            0      0.00%     79.48% # Number of instructions issued per FU type, per thread (Count)
system.cpu.statIssuedInstType_0::SimdDiv            0      0.00%     79.48% # Number of instructions issued per FU type, per thread (Count)
system.cpu.statIssuedInstType_0::SimdSqrt            0      0.00%     79.48% # Number of instructions issued per FU type, per thread (Count)
system.cpu.statIssuedInstType_0::SimdFloatAdd            0      0.00%     79.48% # Number of instructions issued per FU type, per thread (Count)
system.cpu.statIssuedInstType_0::SimdFloatAlu            0      0.00%     79.48% # Number of instructions issued per FU type, per thread (Count)
system.cpu.statIssuedInstType_0::SimdFloatCmp            0      0.00%     79.48% # Number of instructions issued per FU type, per thread (Count)
system.cpu.statIssuedInstType_0::SimdFloatCvt            0      0.00%     79.48% # Number of instructions issued per FU type, per thread (Count)
system.cpu.statIssuedInstType_0::SimdFloatDiv            0      0.00%     79.48% # Number of instructions issued per FU type, per thread (Count)
system.cpu.statIssuedInstType_0::SimdFloatMisc            0      0.00%     79.48% # Number of instructions issued per FU type, per thread (Count)
system.cpu.statIssuedInstType_0::SimdFloatMult            0      0.00%     79.48% # Number of instructions issued per FU type, per thread (Count)
system.cpu.statIssuedInstType_0::SimdFloatMultAcc            0      0.00%     79.48% # Number of instructions issued per FU type, per thread (Count)
system.cpu.statIssuedInstType_0::SimdFloatSqrt            0      0.00%     79.48% # Number of instructions issued per FU type, per thread (Count)
system.cpu.statIssuedInstType_0::SimdReduceAdd            0      0.00%     79.48% # Number of instructions issued per FU type, per thread (Count)
system.cpu.statIssuedInstType_0::SimdReduceAlu            0      0.00%     79.48% # Number of instructions issued per FU type, per thread (Count)
system.cpu.statIssuedInstType_0::SimdReduceCmp            0      0.00%     79.48% # Number of instructions issued per FU type, per thread (Count)
system.cpu.statIssuedInstType_0::SimdFloatReduceAdd            0      0.00%     79.48% # Number of instructions issued per FU type, per thread (Count)
system.cpu.statIssuedInstType_0::SimdFloatReduceCmp            0      0.00%     79.48% # Number of instructions issued per FU type, per thread (Count)
system.cpu.statIssuedInstType_0::SimdAes            0      0.00%     79.48% # Number of instructions issued per FU type, per thread (Count)
system.cpu.statIssuedInstType_0::SimdAesMix            0      0.00%     79.48% # Number of instructions issued per FU type, per thread (Count)
system.cpu.statIssuedInstType_0::SimdSha1Hash            0      0.00%     79.48% # Number of instructions issued per FU type, per thread (Count)
system.cpu.statIssuedInstType_0::SimdSha1Hash2            0      0.00%     79.48% # Number of instructions issued per FU type, per thread (Count)
system.cpu.statIssuedInstType_0::SimdSha256Hash            0      0.00%     79.48% # Number of instructions issued per FU type, per thread (Count)
system.cpu.statIssuedInstType_0::SimdSha256Hash2            0      0.00%     79.48% # Number of instructions issued per FU type, per thread (Count)
system.cpu.statIssuedInstType_0::SimdShaSigma2            0      0.00%     79.48% # Number of instructions issued per FU type, per thread (Count)
system.cpu.statIssuedInstType_0::SimdShaSigma3            0      0.00%     79.48% # Number of instructions issued per FU type, per thread (Count)
system.cpu.statIssuedInstType_0::SimdPredAlu            0      0.00%     79.48% # Number of instructions issued per FU type, per thread (Count)
system.cpu.statIssuedInstType_0::MemRead        27854     12.09%     91.57% # Number of instructions issued per FU type, per thread (Count)
system.cpu.statIssuedInstType_0::MemWrite        17929      7.78%     99.35% # Number of instructions issued per FU type, per thread (Count)
system.cpu.statIssuedInstType_0::FloatMemRead          784      0.34%     99.69% # Number of instructions issued per FU type, per thread (Count)
system.cpu.statIssuedInstType_0::FloatMemWrite          724      0.31%    100.00% # Number of instructions issued per FU type, per thread (Count)
system.cpu.statIssuedInstType_0::IprAccess            0      0.00%    100.00% # Number of instructions issued per FU type, per thread (Count)
system.cpu.statIssuedInstType_0::InstPrefetch            0      0.00%    100.00% # Number of instructions issued per FU type, per thread (Count)
system.cpu.statIssuedInstType_0::total         230479                       # Number of instructions issued per FU type, per thread (Count)
system.cpu.issueRate                         1.611922                       # Inst issue rate ((Count/Cycle))
system.cpu.fuBusy                                5439                       # FU busy when requested (Count)
system.cpu.fuBusyRate                        0.023599                       # FU busy rate (busy events/executed inst) ((Count/Count))
system.cpu.intInstQueueReads                   578533                       # Number of integer instruction queue reads (Count)
system.cpu.intInstQueueWrites                  379639                       # Number of integer instruction queue writes (Count)
system.cpu.intInstQueueWakeupAccesses          214245                       # Number of integer instruction queue wakeup accesses (Count)
system.cpu.fpInstQueueReads                      6879                       # Number of floating instruction queue reads (Count)
system.cpu.fpInstQueueWrites                     6191                       # Number of floating instruction queue writes (Count)
system.cpu.fpInstQueueWakeupAccesses             2816                       # Number of floating instruction queue wakeup accesses (Count)
system.cpu.vecInstQueueReads                        0                       # Number of vector instruction queue reads (Count)
system.cpu.vecInstQueueWrites                       0                       # Number of vector instruction queue writes (Count)
system.cpu.vecInstQueueWakeupAccesses               0                       # Number of vector instruction queue wakeup accesses (Count)
system.cpu.intAluAccesses                      231197                       # Number of integer alu accesses (Count)
system.cpu.fpAluAccesses                         3499                       # Number of floating point alu accesses (Count)
system.cpu.vecAluAccesses                           0                       # Number of vector alu accesses (Count)
system.cpu.numInsts                            220919                       # Number of executed instructions (Count)
system.cpu.numLoadInsts                         26861                       # Number of load instructions executed (Count)
system.cpu.numSquashedInsts                      9560                       # Number of squashed instructions skipped in execute (Count)
system.cpu.numSwp                                   0                       # Number of swp insts executed (Count)
system.cpu.numNop                                   0                       # Number of nop insts executed (Count)
system.cpu.numRefs                              44184                       # Number of memory reference insts executed (Count)
system.cpu.numBranches                          23342                       # Number of branches executed (Count)
system.cpu.numStoreInsts                        17323                       # Number of stores executed (Count)
system.cpu.numRate                           1.545061                       # Inst execution rate ((Count/Cycle))
system.cpu.timesIdled                             352                       # Number of times that the entire CPU went into an idle state and unscheduled itself (Count)
system.cpu.idleCycles                           25062                       # Total number of cycles that the CPU has spent unscheduled due to idling (Cycle)
system.cpu.committedInsts                       77120                       # Number of Instructions Simulated (Count)
system.cpu.committedOps                        142299                       # Number of Ops (including micro ops) Simulated (Count)
system.cpu.cpi                               1.854046                       # CPI: Cycles Per Instruction ((Cycle/Count))
system.cpu.totalCpi                          1.854046                       # CPI: Total CPI of All Threads ((Cycle/Count))
system.cpu.ipc                               0.539361                       # IPC: Instructions Per Cycle ((Count/Cycle))
system.cpu.totalIpc                          0.539361                       # IPC: Total IPC of All Threads ((Count/Cycle))
system.cpu.intRegfileReads                     258930                       # Number of integer regfile reads (Count)
system.cpu.intRegfileWrites                    155829                       # Number of integer regfile writes (Count)
system.cpu.fpRegfileReads                        4118                       # Number of floating regfile reads (Count)
system.cpu.fpRegfileWrites                       1948                       # Number of floating regfile writes (Count)
system.cpu.ccRegfileReads                      114098                       # number of cc regfile reads (Count)
system.cpu.ccRegfileWrites                      66642                       # number of cc regfile writes (Count)
system.cpu.miscRegfileReads                     95217                       # number of misc regfile reads (Count)
system.cpu.MemDepUnit__0.insertedLoads          32767                       # Number of loads inserted to the mem dependence unit. (Count)
system.cpu.MemDepUnit__0.insertedStores         22356                       # Number of stores inserted to the mem dependence unit. (Count)
system.cpu.MemDepUnit__0.conflictingLoads         1579                       # Number of conflicting loads. (Count)
system.cpu.MemDepUnit__0.conflictingStores          400                       # Number of conflicting stores. (Count)
system.cpu.MemDepUnit__1.insertedLoads              0                       # Number of loads inserted to the mem dependence unit. (Count)
system.cpu.MemDepUnit__1.insertedStores             0                       # Number of stores inserted to the mem dependence unit. (Count)
system.cpu.MemDepUnit__1.conflictingLoads            0                       # Number of conflicting loads. (Count)
system.cpu.MemDepUnit__1.conflictingStores            0                       # Number of conflicting stores. (Count)
system.cpu.MemDepUnit__2.insertedLoads              0                       # Number of loads inserted to the mem dependence unit. (Count)
system.cpu.MemDepUnit__2.insertedStores             0                       # Number of stores inserted to the mem dependence unit. (Count)
system.cpu.MemDepUnit__2.conflictingLoads            0                       # Number of conflicting loads. (Count)
system.cpu.MemDepUnit__2.conflictingStores            0                       # Number of conflicting stores. (Count)
system.cpu.MemDepUnit__3.insertedLoads              0                       # Number of loads inserted to the mem dependence unit. (Count)
system.cpu.MemDepUnit__3.insertedStores             0                       # Number of stores inserted to the mem dependence unit. (Count)
system.cpu.MemDepUnit__3.conflictingLoads            0                       # Number of conflicting loads. (Count)
system.cpu.MemDepUnit__3.conflictingStores            0                       # Number of conflicting stores. (Count)
system.cpu.branchPred.lookups                   39126                       # Number of BP lookups (Count)
system.cpu.branchPred.condPredicted             29230                       # Number of conditional branches predicted (Count)
system.cpu.branchPred.condIncorrect              4127                       # Number of conditional branches incorrect (Count)
system.cpu.branchPred.BTBLookups                 7408                       # Number of BTB lookups (Count)
system.cpu.branchPred.BTBHits                    6593                       # Number of BTB hits (Count)
system.cpu.branchPred.BTBHitRatio            0.889984                       # BTB Hit Ratio (Ratio)
system.cpu.branchPred.RASUsed                    2677                       # Number of times the RAS was used to get a target. (Count)
system.cpu.branchPred.RASIncorrect                120                       # Number of incorrect RAS predictions. (Count)
system.cpu.branchPred.indirectLookups            1000                       # Number of indirect predictor lookups. (Count)
system.cpu.branchPred.indirectHits                193                       # Number of indirect target hits. (Count)
system.cpu.branchPred.indirectMisses              807                       # Number of indirect misses. (Count)
system.cpu.branchPred.indirectMispredicted           71                       # Number of mispredicted indirect branches. (Count)
system.cpu.commit.commitSquashedInsts          120832                       # The number of squashed insts skipped by commit (Count)
system.cpu.commit.commitNonSpecStalls              36                       # The number of times commit has been forced to stall to communicate backwards (Count)
system.cpu.commit.branchMispredicts              3870                       # The number of times a branch was mispredicted (Count)
system.cpu.commit.numCommittedDist::samples       100353                       # Number of insts commited each cycle (Count)
system.cpu.commit.numCommittedDist::mean     1.417985                       # Number of insts commited each cycle (Count)
system.cpu.commit.numCommittedDist::stdev     2.353968                       # Number of insts commited each cycle (Count)
system.cpu.commit.numCommittedDist::underflows            0      0.00%      0.00% # Number of insts commited each cycle (Count)
system.cpu.commit.numCommittedDist::0           60925     60.71%     60.71% # Number of insts commited each cycle (Count)
system.cpu.commit.numCommittedDist::1            9545      9.51%     70.22% # Number of insts commited each cycle (Count)
system.cpu.commit.numCommittedDist::2            7623      7.60%     77.82% # Number of insts commited each cycle (Count)
system.cpu.commit.numCommittedDist::3            7182      7.16%     84.98% # Number of insts commited each cycle (Count)
system.cpu.commit.numCommittedDist::4            3526      3.51%     88.49% # Number of insts commited each cycle (Count)
system.cpu.commit.numCommittedDist::5            2039      2.03%     90.52% # Number of insts commited each cycle (Count)
system.cpu.commit.numCommittedDist::6            1781      1.77%     92.30% # Number of insts commited each cycle (Count)
system.cpu.commit.numCommittedDist::7             879      0.88%     93.17% # Number of insts commited each cycle (Count)
system.cpu.commit.numCommittedDist::8            6853      6.83%    100.00% # Number of insts commited each cycle (Count)
system.cpu.commit.numCommittedDist::overflows            0      0.00%    100.00% # Number of insts commited each cycle (Count)
system.cpu.commit.numCommittedDist::min_value            0                       # Number of insts commited each cycle (Count)
system.cpu.commit.numCommittedDist::max_value            8                       # Number of insts commited each cycle (Count)
system.cpu.commit.numCommittedDist::total       100353                       # Number of insts commited each cycle (Count)
system.cpu.commit.instsCommitted                77120                       # Number of instructions committed (Count)
system.cpu.commit.opsCommitted                 142299                       # Number of ops (including micro ops) committed (Count)
system.cpu.commit.memRefs                       29528                       # Number of memory references committed (Count)
system.cpu.commit.loads                         17759                       # Number of loads committed (Count)
system.cpu.commit.amos                              0                       # Number of atomic instructions committed (Count)
system.cpu.commit.membars                          24                       # Number of memory barriers committed (Count)
system.cpu.commit.branches                      16300                       # Number of branches committed (Count)
system.cpu.commit.vectorInstructions                0                       # Number of committed Vector instructions. (Count)
system.cpu.commit.floating                       1861                       # Number of committed floating point instructions. (Count)
system.cpu.commit.integer                      140662                       # Number of committed integer instructions. (Count)
system.cpu.commit.functionCalls                   865                       # Number of function calls committed. (Count)
system.cpu.commit.committedInstType_0::No_OpClass          308      0.22%      0.22% # Class of committed instruction (Count)
system.cpu.commit.committedInstType_0::IntAlu       110896     77.93%     78.15% # Class of committed instruction (Count)
system.cpu.commit.committedInstType_0::IntMult          249      0.17%     78.32% # Class of committed instruction (Count)
system.cpu.commit.committedInstType_0::IntDiv           28      0.02%     78.34% # Class of committed instruction (Count)
system.cpu.commit.committedInstType_0::FloatAdd           87      0.06%     78.40% # Class of committed instruction (Count)
system.cpu.commit.committedInstType_0::FloatCmp            0      0.00%     78.40% # Class of committed instruction (Count)
system.cpu.commit.committedInstType_0::FloatCvt            0      0.00%     78.40% # Class of committed instruction (Count)
system.cpu.commit.committedInstType_0::FloatMult            0      0.00%     78.40% # Class of committed instruction (Count)
system.cpu.commit.committedInstType_0::FloatMultAcc            0      0.00%     78.40% # Class of committed instruction (Count)
system.cpu.commit.committedInstType_0::FloatDiv            0      0.00%     78.40% # Class of committed instruction (Count)
system.cpu.commit.committedInstType_0::FloatMisc            0      0.00%     78.40% # Class of committed instruction (Count)
system.cpu.commit.committedInstType_0::FloatSqrt            0      0.00%     78.40% # Class of committed instruction (Count)
system.cpu.commit.committedInstType_0::SimdAdd            0      0.00%     78.40% # Class of committed instruction (Count)
system.cpu.commit.committedInstType_0::SimdAddAcc            0      0.00%     78.40% # Class of committed instruction (Count)
system.cpu.commit.committedInstType_0::SimdAlu           98      0.07%     78.47% # Class of committed instruction (Count)
system.cpu.commit.committedInstType_0::SimdCmp            0      0.00%     78.47% # Class of committed instruction (Count)
system.cpu.commit.committedInstType_0::SimdCvt          246      0.17%     78.65% # Class of committed instruction (Count)
system.cpu.commit.committedInstType_0::SimdMisc          859      0.60%     79.25% # Class of committed instruction (Count)
system.cpu.commit.committedInstType_0::SimdMult            0      0.00%     79.25% # Class of committed instruction (Count)
system.cpu.commit.committedInstType_0::SimdMultAcc            0      0.00%     79.25% # Class of committed instruction (Count)
system.cpu.commit.committedInstType_0::SimdShift            0      0.00%     79.25% # Class of committed instruction (Count)
system.cpu.commit.committedInstType_0::SimdShiftAcc            0      0.00%     79.25% # Class of committed instruction (Count)
system.cpu.commit.committedInstType_0::SimdDiv            0      0.00%     79.25% # Class of committed instruction (Count)
system.cpu.commit.committedInstType_0::SimdSqrt            0      0.00%     79.25% # Class of committed instruction (Count)
system.cpu.commit.committedInstType_0::SimdFloatAdd            0      0.00%     79.25% # Class of committed instruction (Count)
system.cpu.commit.committedInstType_0::SimdFloatAlu            0      0.00%     79.25% # Class of committed instruction (Count)
system.cpu.commit.committedInstType_0::SimdFloatCmp            0      0.00%     79.25% # Class of committed instruction (Count)
system.cpu.commit.committedInstType_0::SimdFloatCvt            0      0.00%     79.25% # Class of committed instruction (Count)
system.cpu.commit.committedInstType_0::SimdFloatDiv            0      0.00%     79.25% # Class of committed instruction (Count)
system.cpu.commit.committedInstType_0::SimdFloatMisc            0      0.00%     79.25% # Class of committed instruction (Count)
system.cpu.commit.committedInstType_0::SimdFloatMult            0      0.00%     79.25% # Class of committed instruction (Count)
system.cpu.commit.committedInstType_0::SimdFloatMultAcc            0      0.00%     79.25% # Class of committed instruction (Count)
system.cpu.commit.committedInstType_0::SimdFloatSqrt            0      0.00%     79.25% # Class of committed instruction (Count)
system.cpu.commit.committedInstType_0::SimdReduceAdd            0      0.00%     79.25% # Class of committed instruction (Count)
system.cpu.commit.committedInstType_0::SimdReduceAlu            0      0.00%     79.25% # Class of committed instruction (Count)
system.cpu.commit.committedInstType_0::SimdReduceCmp            0      0.00%     79.25% # Class of committed instruction (Count)
system.cpu.commit.committedInstType_0::SimdFloatReduceAdd            0      0.00%     79.25% # Class of committed instruction (Count)
system.cpu.commit.committedInstType_0::SimdFloatReduceCmp            0      0.00%     79.25% # Class of committed instruction (Count)
system.cpu.commit.committedInstType_0::SimdAes            0      0.00%     79.25% # Class of committed instruction (Count)
system.cpu.commit.committedInstType_0::SimdAesMix            0      0.00%     79.25% # Class of committed instruction (Count)
system.cpu.commit.committedInstType_0::SimdSha1Hash            0      0.00%     79.25% # Class of committed instruction (Count)
system.cpu.commit.committedInstType_0::SimdSha1Hash2            0      0.00%     79.25% # Class of committed instruction (Count)
system.cpu.commit.committedInstType_0::SimdSha256Hash            0      0.00%     79.25% # Class of committed instruction (Count)
system.cpu.commit.committedInstType_0::SimdSha256Hash2            0      0.00%     79.25% # Class of committed instruction (Count)
system.cpu.commit.committedInstType_0::SimdShaSigma2            0      0.00%     79.25% # Class of committed instruction (Count)
system.cpu.commit.committedInstType_0::SimdShaSigma3            0      0.00%     79.25% # Class of committed instruction (Count)
system.cpu.commit.committedInstType_0::SimdPredAlu            0      0.00%     79.25% # Class of committed instruction (Count)
system.cpu.commit.committedInstType_0::MemRead        17521     12.31%     91.56% # Class of committed instruction (Count)
system.cpu.commit.committedInstType_0::MemWrite        11529      8.10%     99.66% # Class of committed instruction (Count)
system.cpu.commit.committedInstType_0::FloatMemRead          238      0.17%     99.83% # Class of committed instruction (Count)
system.cpu.commit.committedInstType_0::FloatMemWrite          240      0.17%    100.00% # Class of committed instruction (Count)
system.cpu.commit.committedInstType_0::IprAccess            0      0.00%    100.00% # Class of committed instruction (Count)
system.cpu.commit.committedInstType_0::InstPrefetch            0      0.00%    100.00% # Class of committed instruction (Count)
system.cpu.commit.committedInstType_0::total       142299                       # Class of committed instruction (Count)
system.cpu.commit.commitEligibleSamples          6853                       # number cycles where commit BW limit reached (Cycle)
system.cpu.dcache.demandHits::cpu.data          34011                       # number of demand (read+write) hits (Count)
system.cpu.dcache.demandHits::total             34011                       # number of demand (read+write) hits (Count)
system.cpu.dcache.overallHits::cpu.data         34011                       # number of overall hits (Count)
system.cpu.dcache.overallHits::total            34011                       # number of overall hits (Count)
system.cpu.dcache.demandMisses::cpu.data          675                       # number of demand (read+write) misses (Count)
system.cpu.dcache.demandMisses::total             675                       # number of demand (read+write) misses (Count)
system.cpu.dcache.overallMisses::cpu.data          675                       # number of overall misses (Count)
system.cpu.dcache.overallMisses::total            675                       # number of overall misses (Count)
system.cpu.dcache.demandMissLatency::cpu.data     67475999                       # number of demand (read+write) miss ticks (Tick)
system.cpu.dcache.demandMissLatency::total     67475999                       # number of demand (read+write) miss ticks (Tick)
system.cpu.dcache.overallMissLatency::cpu.data     67475999                       # number of overall miss ticks (Tick)
system.cpu.dcache.overallMissLatency::total     67475999                       # number of overall miss ticks (Tick)
system.cpu.dcache.demandAccesses::cpu.data        34686                       # number of demand (read+write) accesses (Count)
system.cpu.dcache.demandAccesses::total         34686                       # number of demand (read+write) accesses (Count)
system.cpu.dcache.overallAccesses::cpu.data        34686                       # number of overall (read+write) accesses (Count)
system.cpu.dcache.overallAccesses::total        34686                       # number of overall (read+write) accesses (Count)
system.cpu.dcache.demandMissRate::cpu.data     0.019460                       # miss rate for demand accesses (Ratio)
system.cpu.dcache.demandMissRate::total      0.019460                       # miss rate for demand accesses (Ratio)
system.cpu.dcache.overallMissRate::cpu.data     0.019460                       # miss rate for overall accesses (Ratio)
system.cpu.dcache.overallMissRate::total     0.019460                       # miss rate for overall accesses (Ratio)
system.cpu.dcache.demandAvgMissLatency::cpu.data 99964.442963                       # average overall miss latency in ticks ((Tick/Count))
system.cpu.dcache.demandAvgMissLatency::total 99964.442963                       # average overall miss latency in ticks ((Tick/Count))
system.cpu.dcache.overallAvgMissLatency::cpu.data 99964.442963                       # average overall miss latency ((Tick/Count))
system.cpu.dcache.overallAvgMissLatency::total 99964.442963                       # average overall miss latency ((Tick/Count))
system.cpu.dcache.blockedCycles::no_mshrs          320                       # number of cycles access was blocked (Cycle)
system.cpu.dcache.blockedCycles::no_targets            0                       # number of cycles access was blocked (Cycle)
system.cpu.dcache.blockedCauses::no_mshrs           11                       # number of times access was blocked (Count)
system.cpu.dcache.blockedCauses::no_targets            0                       # number of times access was blocked (Count)
system.cpu.dcache.avgBlocked::no_mshrs      29.090909                       # average number of cycles each access was blocked ((Cycle/Count))
system.cpu.dcache.avgBlocked::no_targets          nan                       # average number of cycles each access was blocked ((Cycle/Count))
system.cpu.dcache.writebacks::writebacks           30                       # number of writebacks (Count)
system.cpu.dcache.writebacks::total                30                       # number of writebacks (Count)
system.cpu.dcache.demandMshrHits::cpu.data          197                       # number of demand (read+write) MSHR hits (Count)
system.cpu.dcache.demandMshrHits::total           197                       # number of demand (read+write) MSHR hits (Count)
system.cpu.dcache.overallMshrHits::cpu.data          197                       # number of overall MSHR hits (Count)
system.cpu.dcache.overallMshrHits::total          197                       # number of overall MSHR hits (Count)
system.cpu.dcache.demandMshrMisses::cpu.data          478                       # number of demand (read+write) MSHR misses (Count)
system.cpu.dcache.demandMshrMisses::total          478                       # number of demand (read+write) MSHR misses (Count)
system.cpu.dcache.overallMshrMisses::cpu.data          478                       # number of overall MSHR misses (Count)
system.cpu.dcache.overallMshrMisses::total          478                       # number of overall MSHR misses (Count)
system.cpu.dcache.demandMshrMissLatency::cpu.data     49608999                       # number of demand (read+write) MSHR miss ticks (Tick)
system.cpu.dcache.demandMshrMissLatency::total     49608999                       # number of demand (read+write) MSHR miss ticks (Tick)
system.cpu.dcache.overallMshrMissLatency::cpu.data     49608999                       # number of overall MSHR miss ticks (Tick)
system.cpu.dcache.overallMshrMissLatency::total     49608999                       # number of overall MSHR miss ticks (Tick)
system.cpu.dcache.demandMshrMissRate::cpu.data     0.013781                       # mshr miss ratio for demand accesses (Ratio)
system.cpu.dcache.demandMshrMissRate::total     0.013781                       # mshr miss ratio for demand accesses (Ratio)
system.cpu.dcache.overallMshrMissRate::cpu.data     0.013781                       # mshr miss ratio for overall accesses (Ratio)
system.cpu.dcache.overallMshrMissRate::total     0.013781                       # mshr miss ratio for overall accesses (Ratio)
system.cpu.dcache.demandAvgMshrMissLatency::cpu.data 103784.516736                       # average overall mshr miss latency ((Tick/Count))
system.cpu.dcache.demandAvgMshrMissLatency::total 103784.516736                       # average overall mshr miss latency ((Tick/Count))
system.cpu.dcache.overallAvgMshrMissLatency::cpu.data 103784.516736                       # average overall mshr miss latency ((Tick/Count))
system.cpu.dcache.overallAvgMshrMissLatency::total 103784.516736                       # average overall mshr miss latency ((Tick/Count))
system.cpu.dcache.replacements                     47                       # number of replacements (Count)
system.cpu.dcache.LockedRMWReadReq.hits::cpu.data           12                       # number of LockedRMWReadReq hits (Count)
system.cpu.dcache.LockedRMWReadReq.hits::total           12                       # number of LockedRMWReadReq hits (Count)
system.cpu.dcache.LockedRMWReadReq.accesses::cpu.data           12                       # number of LockedRMWReadReq accesses(hits+misses) (Count)
system.cpu.dcache.LockedRMWReadReq.accesses::total           12                       # number of LockedRMWReadReq accesses(hits+misses) (Count)
system.cpu.dcache.LockedRMWReadReq.mshrMissLatency::cpu.data       138000                       # number of LockedRMWReadReq MSHR miss ticks (Tick)
system.cpu.dcache.LockedRMWReadReq.mshrMissLatency::total       138000                       # number of LockedRMWReadReq MSHR miss ticks (Tick)
system.cpu.dcache.LockedRMWReadReq.avgMshrMissLatency::cpu.data          inf                       # average LockedRMWReadReq mshr miss latency ((Tick/Count))
system.cpu.dcache.LockedRMWReadReq.avgMshrMissLatency::total          inf                       # average LockedRMWReadReq mshr miss latency ((Tick/Count))
system.cpu.dcache.LockedRMWWriteReq.hits::cpu.data           12                       # number of LockedRMWWriteReq hits (Count)
system.cpu.dcache.LockedRMWWriteReq.hits::total           12                       # number of LockedRMWWriteReq hits (Count)
system.cpu.dcache.LockedRMWWriteReq.accesses::cpu.data           12                       # number of LockedRMWWriteReq accesses(hits+misses) (Count)
system.cpu.dcache.LockedRMWWriteReq.accesses::total           12                       # number of LockedRMWWriteReq accesses(hits+misses) (Count)
system.cpu.dcache.ReadReq.hits::cpu.data        22584                       # number of ReadReq hits (Count)
system.cpu.dcache.ReadReq.hits::total           22584                       # number of ReadReq hits (Count)
system.cpu.dcache.ReadReq.misses::cpu.data          346                       # number of ReadReq misses (Count)
system.cpu.dcache.ReadReq.misses::total           346                       # number of ReadReq misses (Count)
system.cpu.dcache.ReadReq.missLatency::cpu.data     36213000                       # number of ReadReq miss ticks (Tick)
system.cpu.dcache.ReadReq.missLatency::total     36213000                       # number of ReadReq miss ticks (Tick)
system.cpu.dcache.ReadReq.accesses::cpu.data        22930                       # number of ReadReq accesses(hits+misses) (Count)
system.cpu.dcache.ReadReq.accesses::total        22930                       # number of ReadReq accesses(hits+misses) (Count)
system.cpu.dcache.ReadReq.missRate::cpu.data     0.015089                       # miss rate for ReadReq accesses (Ratio)
system.cpu.dcache.ReadReq.missRate::total     0.015089                       # miss rate for ReadReq accesses (Ratio)
system.cpu.dcache.ReadReq.avgMissLatency::cpu.data 104661.849711                       # average ReadReq miss latency ((Tick/Count))
system.cpu.dcache.ReadReq.avgMissLatency::total 104661.849711                       # average ReadReq miss latency ((Tick/Count))
system.cpu.dcache.ReadReq.mshrHits::cpu.data          168                       # number of ReadReq MSHR hits (Count)
system.cpu.dcache.ReadReq.mshrHits::total          168                       # number of ReadReq MSHR hits (Count)
system.cpu.dcache.ReadReq.mshrMisses::cpu.data          178                       # number of ReadReq MSHR misses (Count)
system.cpu.dcache.ReadReq.mshrMisses::total          178                       # number of ReadReq MSHR misses (Count)
system.cpu.dcache.ReadReq.mshrMissLatency::cpu.data     19851000                       # number of ReadReq MSHR miss ticks (Tick)
system.cpu.dcache.ReadReq.mshrMissLatency::total     19851000                       # number of ReadReq MSHR miss ticks (Tick)
system.cpu.dcache.ReadReq.mshrMissRate::cpu.data     0.007763                       # mshr miss rate for ReadReq accesses (Ratio)
system.cpu.dcache.ReadReq.mshrMissRate::total     0.007763                       # mshr miss rate for ReadReq accesses (Ratio)
system.cpu.dcache.ReadReq.avgMshrMissLatency::cpu.data 111522.471910                       # average ReadReq mshr miss latency ((Tick/Count))
system.cpu.dcache.ReadReq.avgMshrMissLatency::total 111522.471910                       # average ReadReq mshr miss latency ((Tick/Count))
system.cpu.dcache.WriteReq.hits::cpu.data        11427                       # number of WriteReq hits (Count)
system.cpu.dcache.WriteReq.hits::total          11427                       # number of WriteReq hits (Count)
system.cpu.dcache.WriteReq.misses::cpu.data          329                       # number of WriteReq misses (Count)
system.cpu.dcache.WriteReq.misses::total          329                       # number of WriteReq misses (Count)
system.cpu.dcache.WriteReq.missLatency::cpu.data     31262999                       # number of WriteReq miss ticks (Tick)
system.cpu.dcache.WriteReq.missLatency::total     31262999                       # number of WriteReq miss ticks (Tick)
system.cpu.dcache.WriteReq.accesses::cpu.data        11756                       # number of WriteReq accesses(hits+misses) (Count)
system.cpu.dcache.WriteReq.accesses::total        11756                       # number of WriteReq accesses(hits+misses) (Count)
system.cpu.dcache.WriteReq.missRate::cpu.data     0.027986                       # miss rate for WriteReq accesses (Ratio)
system.cpu.dcache.WriteReq.missRate::total     0.027986                       # miss rate for WriteReq accesses (Ratio)
system.cpu.dcache.WriteReq.avgMissLatency::cpu.data 95024.313070                       # average WriteReq miss latency ((Tick/Count))
system.cpu.dcache.WriteReq.avgMissLatency::total 95024.313070                       # average WriteReq miss latency ((Tick/Count))
system.cpu.dcache.WriteReq.mshrHits::cpu.data           29                       # number of WriteReq MSHR hits (Count)
system.cpu.dcache.WriteReq.mshrHits::total           29                       # number of WriteReq MSHR hits (Count)
system.cpu.dcache.WriteReq.mshrMisses::cpu.data          300                       # number of WriteReq MSHR misses (Count)
system.cpu.dcache.WriteReq.mshrMisses::total          300                       # number of WriteReq MSHR misses (Count)
system.cpu.dcache.WriteReq.mshrMissLatency::cpu.data     29757999                       # number of WriteReq MSHR miss ticks (Tick)
system.cpu.dcache.WriteReq.mshrMissLatency::total     29757999                       # number of WriteReq MSHR miss ticks (Tick)
system.cpu.dcache.WriteReq.mshrMissRate::cpu.data     0.025519                       # mshr miss rate for WriteReq accesses (Ratio)
system.cpu.dcache.WriteReq.mshrMissRate::total     0.025519                       # mshr miss rate for WriteReq accesses (Ratio)
system.cpu.dcache.WriteReq.avgMshrMissLatency::cpu.data 99193.330000                       # average WriteReq mshr miss latency ((Tick/Count))
system.cpu.dcache.WriteReq.avgMshrMissLatency::total 99193.330000                       # average WriteReq mshr miss latency ((Tick/Count))
system.cpu.dcache.power_state.pwrStateResidencyTicks::UNDEFINED    142983000                       # Cumulative time (in ticks) in various power states (Tick)
system.cpu.dcache.tags.tagsInUse           256.010737                       # Average ticks per tags in use ((Tick/Count))
system.cpu.dcache.tags.totalRefs                34513                       # Total number of references to valid blocks. (Count)
system.cpu.dcache.tags.sampledRefs                478                       # Sample count of references to valid blocks. (Count)
system.cpu.dcache.tags.avgRefs              72.202929                       # Average number of references to valid blocks. ((Count/Count))
system.cpu.dcache.tags.warmupTick              222000                       # The tick when the warmup percentage was hit. (Tick)
system.cpu.dcache.tags.occupancies::cpu.data   256.010737                       # Average occupied blocks per tick, per requestor ((Count/Tick))
system.cpu.dcache.tags.avgOccs::cpu.data     0.500021                       # Average percentage of cache occupancy ((Ratio/Tick))
system.cpu.dcache.tags.avgOccs::total        0.500021                       # Average percentage of cache occupancy ((Ratio/Tick))
system.cpu.dcache.tags.occupanciesTaskId::1024          431                       # Occupied blocks per task id (Count)
system.cpu.dcache.tags.ageTaskId_1024::0           32                       # Occupied blocks per task id, per block age (Count)
system.cpu.dcache.tags.ageTaskId_1024::1          245                       # Occupied blocks per task id, per block age (Count)
system.cpu.dcache.tags.ageTaskId_1024::2          154                       # Occupied blocks per task id, per block age (Count)
system.cpu.dcache.tags.ratioOccsTaskId::1024     0.841797                       # Ratio of occupied blocks and all blocks, per task id (Ratio)
system.cpu.dcache.tags.tagAccesses             139318                       # Number of tag accesses (Count)
system.cpu.dcache.tags.dataAccesses            139318                       # Number of data accesses (Count)
system.cpu.dcache.tags.power_state.pwrStateResidencyTicks::UNDEFINED    142983000                       # Cumulative time (in ticks) in various power states (Tick)
system.cpu.decode.idleCycles                    36156                       # Number of cycles decode is idle (Cycle)
system.cpu.decode.blockedCycles                 32949                       # Number of cycles decode is blocked (Cycle)
system.cpu.decode.runCycles                     41075                       # Number of cycles decode is running (Cycle)
system.cpu.decode.unblockCycles                  3803                       # Number of cycles decode is unblocking (Cycle)
system.cpu.decode.squashCycles                   3939                       # Number of cycles decode is squashing (Cycle)
system.cpu.decode.branchResolved                 6444                       # Number of times decode resolved a branch (Count)
system.cpu.decode.branchMispred                   327                       # Number of times decode detected a branch misprediction (Count)
system.cpu.decode.decodedInsts                 314208                       # Number of instructions handled by decode (Count)
system.cpu.decode.squashedInsts                  1583                       # Number of squashed instructions handled by decode (Count)
system.cpu.fetch.icacheStallCycles              42357                       # Number of cycles fetch is stalled on an Icache miss (Cycle)
system.cpu.fetch.insts                         177593                       # Number of instructions fetch has processed (Count)
system.cpu.fetch.branches                       39126                       # Number of branches that fetch encountered (Count)
system.cpu.fetch.predictedBranches               9463                       # Number of branches that fetch has predicted taken (Count)
system.cpu.fetch.cycles                         70533                       # Number of cycles fetch has run and was not squashing or blocked (Cycle)
system.cpu.fetch.squashCycles                    8514                       # Number of cycles fetch has spent squashing (Cycle)
system.cpu.fetch.miscStallCycles                   67                       # Number of cycles fetch has spent waiting on interrupts, or bad addresses, or out of MSHRs (Cycle)
system.cpu.fetch.pendingTrapStallCycles           708                       # Number of stall cycles due to pending traps (Cycle)
system.cpu.fetch.cacheLines                     24138                       # Number of cache lines fetched (Count)
system.cpu.fetch.icacheSquashes                  1419                       # Number of outstanding Icache misses that were squashed (Count)
system.cpu.fetch.nisnDist::samples             117922                       # Number of instructions fetched each cycle (Total) (Count)
system.cpu.fetch.nisnDist::mean              2.857151                       # Number of instructions fetched each cycle (Total) (Count)
system.cpu.fetch.nisnDist::stdev             3.572504                       # Number of instructions fetched each cycle (Total) (Count)
system.cpu.fetch.nisnDist::underflows               0      0.00%      0.00% # Number of instructions fetched each cycle (Total) (Count)
system.cpu.fetch.nisnDist::0                    66511     56.40%     56.40% # Number of instructions fetched each cycle (Total) (Count)
system.cpu.fetch.nisnDist::1                     2216      1.88%     58.28% # Number of instructions fetched each cycle (Total) (Count)
system.cpu.fetch.nisnDist::2                     3014      2.56%     60.84% # Number of instructions fetched each cycle (Total) (Count)
system.cpu.fetch.nisnDist::3                     2456      2.08%     62.92% # Number of instructions fetched each cycle (Total) (Count)
system.cpu.fetch.nisnDist::4                     3352      2.84%     65.76% # Number of instructions fetched each cycle (Total) (Count)
system.cpu.fetch.nisnDist::5                     2432      2.06%     67.83% # Number of instructions fetched each cycle (Total) (Count)
system.cpu.fetch.nisnDist::6                     2704      2.29%     70.12% # Number of instructions fetched each cycle (Total) (Count)
system.cpu.fetch.nisnDist::7                     2379      2.02%     72.14% # Number of instructions fetched each cycle (Total) (Count)
system.cpu.fetch.nisnDist::8                    32858     27.86%    100.00% # Number of instructions fetched each cycle (Total) (Count)
system.cpu.fetch.nisnDist::overflows                0      0.00%    100.00% # Number of instructions fetched each cycle (Total) (Count)
system.cpu.fetch.nisnDist::min_value                0                       # Number of instructions fetched each cycle (Total) (Count)
system.cpu.fetch.nisnDist::max_value                8                       # Number of instructions fetched each cycle (Total) (Count)
system.cpu.fetch.nisnDist::total               117922                       # Number of instructions fetched each cycle (Total) (Count)
system.cpu.fetch.branchRate                  0.273639                       # Number of branch fetches per cycle (Ratio)
system.cpu.fetch.rate                        1.242048                       # Number of inst fetches per cycle ((Count/Cycle))
system.cpu.icache.demandHits::cpu.inst          23295                       # number of demand (read+write) hits (Count)
system.cpu.icache.demandHits::total             23295                       # number of demand (read+write) hits (Count)
system.cpu.icache.overallHits::cpu.inst         23295                       # number of overall hits (Count)
system.cpu.icache.overallHits::total            23295                       # number of overall hits (Count)
system.cpu.icache.demandMisses::cpu.inst          843                       # number of demand (read+write) misses (Count)
system.cpu.icache.demandMisses::total             843                       # number of demand (read+write) misses (Count)
system.cpu.icache.overallMisses::cpu.inst          843                       # number of overall misses (Count)
system.cpu.icache.overallMisses::total            843                       # number of overall misses (Count)
system.cpu.icache.demandMissLatency::cpu.inst     77856000                       # number of demand (read+write) miss ticks (Tick)
system.cpu.icache.demandMissLatency::total     77856000                       # number of demand (read+write) miss ticks (Tick)
system.cpu.icache.overallMissLatency::cpu.inst     77856000                       # number of overall miss ticks (Tick)
system.cpu.icache.overallMissLatency::total     77856000                       # number of overall miss ticks (Tick)
system.cpu.icache.demandAccesses::cpu.inst        24138                       # number of demand (read+write) accesses (Count)
system.cpu.icache.demandAccesses::total         24138                       # number of demand (read+write) accesses (Count)
system.cpu.icache.overallAccesses::cpu.inst        24138                       # number of overall (read+write) accesses (Count)
system.cpu.icache.overallAccesses::total        24138                       # number of overall (read+write) accesses (Count)
system.cpu.icache.demandMissRate::cpu.inst     0.034924                       # miss rate for demand accesses (Ratio)
system.cpu.icache.demandMissRate::total      0.034924                       # miss rate for demand accesses (Ratio)
system.cpu.icache.overallMissRate::cpu.inst     0.034924                       # miss rate for overall accesses (Ratio)
system.cpu.icache.overallMissRate::total     0.034924                       # miss rate for overall accesses (Ratio)
system.cpu.icache.demandAvgMissLatency::cpu.inst 92355.871886                       # average overall miss latency in ticks ((Tick/Count))
system.cpu.icache.demandAvgMissLatency::total 92355.871886                       # average overall miss latency in ticks ((Tick/Count))
system.cpu.icache.overallAvgMissLatency::cpu.inst 92355.871886                       # average overall miss latency ((Tick/Count))
system.cpu.icache.overallAvgMissLatency::total 92355.871886                       # average overall miss latency ((Tick/Count))
system.cpu.icache.blockedCycles::no_mshrs          121                       # number of cycles access was blocked (Cycle)
system.cpu.icache.blockedCycles::no_targets            0                       # number of cycles access was blocked (Cycle)
system.cpu.icache.blockedCauses::no_mshrs            3                       # number of times access was blocked (Count)
system.cpu.icache.blockedCauses::no_targets            0                       # number of times access was blocked (Count)
system.cpu.icache.avgBlocked::no_mshrs      40.333333                       # average number of cycles each access was blocked ((Cycle/Count))
system.cpu.icache.avgBlocked::no_targets          nan                       # average number of cycles each access was blocked ((Cycle/Count))
system.cpu.icache.demandMshrHits::cpu.inst          224                       # number of demand (read+write) MSHR hits (Count)
system.cpu.icache.demandMshrHits::total           224                       # number of demand (read+write) MSHR hits (Count)
system.cpu.icache.overallMshrHits::cpu.inst          224                       # number of overall MSHR hits (Count)
system.cpu.icache.overallMshrHits::total          224                       # number of overall MSHR hits (Count)
system.cpu.icache.demandMshrMisses::cpu.inst          619                       # number of demand (read+write) MSHR misses (Count)
system.cpu.icache.demandMshrMisses::total          619                       # number of demand (read+write) MSHR misses (Count)
system.cpu.icache.overallMshrMisses::cpu.inst          619                       # number of overall MSHR misses (Count)
system.cpu.icache.overallMshrMisses::total          619                       # number of overall MSHR misses (Count)
system.cpu.icache.demandMshrMissLatency::cpu.inst     60021000                       # number of demand (read+write) MSHR miss ticks (Tick)
system.cpu.icache.demandMshrMissLatency::total     60021000                       # number of demand (read+write) MSHR miss ticks (Tick)
system.cpu.icache.overallMshrMissLatency::cpu.inst     60021000                       # number of overall MSHR miss ticks (Tick)
system.cpu.icache.overallMshrMissLatency::total     60021000                       # number of overall MSHR miss ticks (Tick)
system.cpu.icache.demandMshrMissRate::cpu.inst     0.025644                       # mshr miss ratio for demand accesses (Ratio)
system.cpu.icache.demandMshrMissRate::total     0.025644                       # mshr miss ratio for demand accesses (Ratio)
system.cpu.icache.overallMshrMissRate::cpu.inst     0.025644                       # mshr miss ratio for overall accesses (Ratio)
system.cpu.icache.overallMshrMissRate::total     0.025644                       # mshr miss ratio for overall accesses (Ratio)
system.cpu.icache.demandAvgMshrMissLatency::cpu.inst 96964.458805                       # average overall mshr miss latency ((Tick/Count))
system.cpu.icache.demandAvgMshrMissLatency::total 96964.458805                       # average overall mshr miss latency ((Tick/Count))
system.cpu.icache.overallAvgMshrMissLatency::cpu.inst 96964.458805                       # average overall mshr miss latency ((Tick/Count))
system.cpu.icache.overallAvgMshrMissLatency::total 96964.458805                       # average overall mshr miss latency ((Tick/Count))
system.cpu.icache.replacements                    192                       # number of replacements (Count)
system.cpu.icache.ReadReq.hits::cpu.inst        23295                       # number of ReadReq hits (Count)
system.cpu.icache.ReadReq.hits::total           23295                       # number of ReadReq hits (Count)
system.cpu.icache.ReadReq.misses::cpu.inst          843                       # number of ReadReq misses (Count)
system.cpu.icache.ReadReq.misses::total           843                       # number of ReadReq misses (Count)
system.cpu.icache.ReadReq.missLatency::cpu.inst     77856000                       # number of ReadReq miss ticks (Tick)
system.cpu.icache.ReadReq.missLatency::total     77856000                       # number of ReadReq miss ticks (Tick)
system.cpu.icache.ReadReq.accesses::cpu.inst        24138                       # number of ReadReq accesses(hits+misses) (Count)
system.cpu.icache.ReadReq.accesses::total        24138                       # number of ReadReq accesses(hits+misses) (Count)
system.cpu.icache.ReadReq.missRate::cpu.inst     0.034924                       # miss rate for ReadReq accesses (Ratio)
system.cpu.icache.ReadReq.missRate::total     0.034924                       # miss rate for ReadReq accesses (Ratio)
system.cpu.icache.ReadReq.avgMissLatency::cpu.inst 92355.871886                       # average ReadReq miss latency ((Tick/Count))
system.cpu.icache.ReadReq.avgMissLatency::total 92355.871886                       # average ReadReq miss latency ((Tick/Count))
system.cpu.icache.ReadReq.mshrHits::cpu.inst          224                       # number of ReadReq MSHR hits (Count)
system.cpu.icache.ReadReq.mshrHits::total          224                       # number of ReadReq MSHR hits (Count)
system.cpu.icache.ReadReq.mshrMisses::cpu.inst          619                       # number of ReadReq MSHR misses (Count)
system.cpu.icache.ReadReq.mshrMisses::total          619                       # number of ReadReq MSHR misses (Count)
system.cpu.icache.ReadReq.mshrMissLatency::cpu.inst     60021000                       # number of ReadReq MSHR miss ticks (Tick)
system.cpu.icache.ReadReq.mshrMissLatency::total     60021000                       # number of ReadReq MSHR miss ticks (Tick)
system.cpu.icache.ReadReq.mshrMissRate::cpu.inst     0.025644                       # mshr miss rate for ReadReq accesses (Ratio)
system.cpu.icache.ReadReq.mshrMissRate::total     0.025644                       # mshr miss rate for ReadReq accesses (Ratio)
system.cpu.icache.ReadReq.avgMshrMissLatency::cpu.inst 96964.458805                       # average ReadReq mshr miss latency ((Tick/Count))
system.cpu.icache.ReadReq.avgMshrMissLatency::total 96964.458805                       # average ReadReq mshr miss latency ((Tick/Count))
system.cpu.icache.power_state.pwrStateResidencyTicks::UNDEFINED    142983000                       # Cumulative time (in ticks) in various power states (Tick)
system.cpu.icache.tags.tagsInUse           345.345070                       # Average ticks per tags in use ((Tick/Count))
system.cpu.icache.tags.totalRefs                23914                       # Total number of references to valid blocks. (Count)
system.cpu.icache.tags.sampledRefs                619                       # Sample count of references to valid blocks. (Count)
system.cpu.icache.tags.avgRefs              38.633279                       # Average number of references to valid blocks. ((Count/Count))
system.cpu.icache.tags.warmupTick              107000                       # The tick when the warmup percentage was hit. (Tick)
system.cpu.icache.tags.occupancies::cpu.inst   345.345070                       # Average occupied blocks per tick, per requestor ((Count/Tick))
system.cpu.icache.tags.avgOccs::cpu.inst     0.674502                       # Average percentage of cache occupancy ((Ratio/Tick))
system.cpu.icache.tags.avgOccs::total        0.674502                       # Average percentage of cache occupancy ((Ratio/Tick))
system.cpu.icache.tags.occupanciesTaskId::1024          427                       # Occupied blocks per task id (Count)
system.cpu.icache.tags.ageTaskId_1024::1          213                       # Occupied blocks per task id, per block age (Count)
system.cpu.icache.tags.ageTaskId_1024::2          214                       # Occupied blocks per task id, per block age (Count)
system.cpu.icache.tags.ratioOccsTaskId::1024     0.833984                       # Ratio of occupied blocks and all blocks, per task id (Ratio)
system.cpu.icache.tags.tagAccesses              48895                       # Number of tag accesses (Count)
system.cpu.icache.tags.dataAccesses             48895                       # Number of data accesses (Count)
system.cpu.icache.tags.power_state.pwrStateResidencyTicks::UNDEFINED    142983000                       # Cumulative time (in ticks) in various power states (Tick)
system.cpu.iew.idleCycles                           0                       # Number of cycles IEW is idle (Cycle)
system.cpu.iew.squashCycles                      3939                       # Number of cycles IEW is squashing (Cycle)
system.cpu.iew.blockCycles                      14012                       # Number of cycles IEW is blocking (Cycle)
system.cpu.iew.unblockCycles                     3426                       # Number of cycles IEW is unblocking (Cycle)
system.cpu.iew.dispatchedInsts                 264044                       # Number of instructions dispatched to IQ (Count)
system.cpu.iew.dispSquashedInsts                   88                       # Number of squashed instructions skipped by dispatch (Count)
system.cpu.iew.dispLoadInsts                    32767                       # Number of dispatched load instructions (Count)
system.cpu.iew.dispStoreInsts                   22356                       # Number of dispatched store instructions (Count)
system.cpu.iew.dispNonSpecInsts                   181                       # Number of dispatched non-speculative instructions (Count)
system.cpu.iew.iqFullEvents                        20                       # Number of times the IQ has become full, causing a stall (Count)
system.cpu.iew.lsqFullEvents                     3394                       # Number of times the LSQ has become full, causing a stall (Count)
system.cpu.iew.memOrderViolationEvents             43                       # Number of memory order violations (Count)
system.cpu.iew.predictedTakenIncorrect            214                       # Number of branches that were predicted taken incorrectly (Count)
system.cpu.iew.predictedNotTakenIncorrect         4653                       # Number of branches that were predicted not taken incorrectly (Count)
system.cpu.iew.branchMispredicts                 4867                       # Number of branch mispredicts detected at execute (Count)
system.cpu.iew.instsToCommit                   218852                       # Cumulative count of insts sent to commit (Count)
system.cpu.iew.writebackCount                  217061                       # Cumulative count of insts written-back (Count)
system.cpu.iew.producerInst                    154280                       # Number of instructions producing a value (Count)
system.cpu.iew.consumerInst                    241733                       # Number of instructions consuming a value (Count)
system.cpu.iew.wbRate                        1.518079                       # Insts written-back per cycle ((Count/Cycle))
system.cpu.iew.wbFanout                      0.638225                       # Average fanout of values written-back ((Count/Count))
system.cpu.interrupts.clk_domain.clock          16000                       # Clock period in ticks (Tick)
system.cpu.lsq0.forwLoads                        3616                       # Number of loads that had data forwarded from stores (Count)
system.cpu.lsq0.squashedLoads                   15008                       # Number of loads squashed (Count)
system.cpu.lsq0.ignoredResponses                   54                       # Number of memory responses ignored because the instruction is squashed (Count)
system.cpu.lsq0.memOrderViolation                  43                       # Number of memory ordering violations (Count)
system.cpu.lsq0.squashedStores                  10587                       # Number of stores squashed (Count)
system.cpu.lsq0.rescheduledLoads                    0                       # Number of loads that were rescheduled (Count)
system.cpu.lsq0.blockedByCache                      9                       # Number of times an access to memory failed due to the cache being blocked (Count)
system.cpu.lsq0.loadToUse::samples              17759                       # Distribution of cycle latency between the first time a load is issued and its completion (Unspecified)
system.cpu.lsq0.loadToUse::mean              4.307393                       # Distribution of cycle latency between the first time a load is issued and its completion (Unspecified)
system.cpu.lsq0.loadToUse::stdev            12.891271                       # Distribution of cycle latency between the first time a load is issued and its completion (Unspecified)
system.cpu.lsq0.loadToUse::0-9                  17556     98.86%     98.86% # Distribution of cycle latency between the first time a load is issued and its completion (Unspecified)
system.cpu.lsq0.loadToUse::20-29                    6      0.03%     98.89% # Distribution of cycle latency between the first time a load is issued and its completion (Unspecified)
system.cpu.lsq0.loadToUse::30-39                    4      0.02%     98.91% # Distribution of cycle latency between the first time a load is issued and its completion (Unspecified)
system.cpu.lsq0.loadToUse::40-49                    6      0.03%     98.95% # Distribution of cycle latency between the first time a load is issued and its completion (Unspecified)
system.cpu.lsq0.loadToUse::50-59                    4      0.02%     98.97% # Distribution of cycle latency between the first time a load is issued and its completion (Unspecified)
system.cpu.lsq0.loadToUse::60-69                    1      0.01%     98.98% # Distribution of cycle latency between the first time a load is issued and its completion (Unspecified)
system.cpu.lsq0.loadToUse::70-79                    7      0.04%     99.01% # Distribution of cycle latency between the first time a load is issued and its completion (Unspecified)
system.cpu.lsq0.loadToUse::80-89                   17      0.10%     99.11% # Distribution of cycle latency between the first time a load is issued and its completion (Unspecified)
system.cpu.lsq0.loadToUse::90-99                   83      0.47%     99.58% # Distribution of cycle latency between the first time a load is issued and its completion (Unspecified)
system.cpu.lsq0.loadToUse::100-109                  3      0.02%     99.59% # Distribution of cycle latency between the first time a load is issued and its completion (Unspecified)
system.cpu.lsq0.loadToUse::110-119                 19      0.11%     99.70% # Distribution of cycle latency between the first time a load is issued and its completion (Unspecified)
system.cpu.lsq0.loadToUse::120-129                 37      0.21%     99.91% # Distribution of cycle latency between the first time a load is issued and its completion (Unspecified)
system.cpu.lsq0.loadToUse::130-139                  6      0.03%     99.94% # Distribution of cycle latency between the first time a load is issued and its completion (Unspecified)
system.cpu.lsq0.loadToUse::150-159                  1      0.01%     99.95% # Distribution of cycle latency between the first time a load is issued and its completion (Unspecified)
system.cpu.lsq0.loadToUse::overflows                9      0.05%    100.00% # Distribution of cycle latency between the first time a load is issued and its completion (Unspecified)
system.cpu.lsq0.loadToUse::min_value                2                       # Distribution of cycle latency between the first time a load is issued and its completion (Unspecified)
system.cpu.lsq0.loadToUse::max_value              380                       # Distribution of cycle latency between the first time a load is issued and its completion (Unspecified)
system.cpu.lsq0.loadToUse::total                17759                       # Distribution of cycle latency between the first time a load is issued and its completion (Unspecified)
system.cpu.mmu.dtb.rdAccesses                   26881                       # TLB accesses on read requests (Count)
system.cpu.mmu.dtb.wrAccesses                   17324                       # TLB accesses on write requests (Count)
system.cpu.mmu.dtb.rdMisses                       340                       # TLB misses on read requests (Count)
system.cpu.mmu.dtb.wrMisses                       283                       # TLB misses on write requests (Count)
system.cpu.mmu.dtb.walker.power_state.pwrStateResidencyTicks::UNDEFINED    142983000                       # Cumulative time (in ticks) in various power states (Tick)
system.cpu.mmu.itb.rdAccesses                       0                       # TLB accesses on read requests (Count)
system.cpu.mmu.itb.wrAccesses                   24324                       # TLB accesses on write requests (Count)
system.cpu.mmu.itb.rdMisses                         0                       # TLB misses on read requests (Count)
system.cpu.mmu.itb.wrMisses                       236                       # TLB misses on write requests (Count)
system.cpu.mmu.itb.walker.power_state.pwrStateResidencyTicks::UNDEFINED    142983000                       # Cumulative time (in ticks) in various power states (Tick)
system.cpu.power_state.pwrStateResidencyTicks::ON    142983000                       # Cumulative time (in ticks) in various power states (Tick)
[...]
system.mem_ctrl.requestorReadAvgLat::cpu.inst     28587.85                       # Per-requestor read average memory access latency ((Tick/Count))
system.mem_ctrl.requestorReadAvgLat::cpu.data     30449.58                       # Per-requestor read average memory access latency ((Tick/Count))
system.mem_ctrl.dram.bytesRead::cpu.inst        36608                       # Number of bytes read from this memory (Byte)
system.mem_ctrl.dram.bytesRead::cpu.data        30144                       # Number of bytes read from this memory (Byte)
system.mem_ctrl.dram.bytesRead::total           66752                       # Number of bytes read from this memory (Byte)
system.mem_ctrl.dram.bytesInstRead::cpu.inst        36608                       # Number of instructions bytes read from this memory (Byte)
system.mem_ctrl.dram.bytesInstRead::total        36608                       # Number of instructions bytes read from this memory (Byte)
system.mem_ctrl.dram.numReads::cpu.inst           572                       # Number of read requests responded to by this memory (Count)
system.mem_ctrl.dram.numReads::cpu.data           471                       # Number of read requests responded to by this memory (Count)
system.mem_ctrl.dram.numReads::total             1043                       # Number of read requests responded to by this memory (Count)
system.mem_ctrl.dram.bwRead::cpu.inst       256030437                       # Total read bandwidth from this memory ((Byte/Second))
system.mem_ctrl.dram.bwRead::cpu.data       210822266                       # Total read bandwidth from this memory ((Byte/Second))
system.mem_ctrl.dram.bwRead::total          466852703                       # Total read bandwidth from this memory ((Byte/Second))
system.mem_ctrl.dram.bwInstRead::cpu.inst    256030437                       # Instruction read bandwidth from this memory ((Byte/Second))
system.mem_ctrl.dram.bwInstRead::total      256030437                       # Instruction read bandwidth from this memory ((Byte/Second))
system.mem_ctrl.dram.bwTotal::cpu.inst      256030437                       # Total bandwidth to/from this memory ((Byte/Second))
system.mem_ctrl.dram.bwTotal::cpu.data      210822266                       # Total bandwidth to/from this memory ((Byte/Second))
system.mem_ctrl.dram.bwTotal::total         466852703                       # Total bandwidth to/from this memory ((Byte/Second))
system.mem_ctrl.dram.readBursts                  1043                       # Number of DRAM read bursts (Count)
system.mem_ctrl.dram.writeBursts                    0                       # Number of DRAM write bursts (Count)
system.mem_ctrl.dram.perBankRdBursts::0            59                       # Per bank write bursts (Count)
system.mem_ctrl.dram.perBankRdBursts::1            24                       # Per bank write bursts (Count)
system.mem_ctrl.dram.perBankRdBursts::2            78                       # Per bank write bursts (Count)
system.mem_ctrl.dram.perBankRdBursts::3            26                       # Per bank write bursts (Count)
system.mem_ctrl.dram.perBankRdBursts::4            13                       # Per bank write bursts (Count)
system.mem_ctrl.dram.perBankRdBursts::5            81                       # Per bank write bursts (Count)
system.mem_ctrl.dram.perBankRdBursts::6            57                       # Per bank write bursts (Count)
system.mem_ctrl.dram.perBankRdBursts::7            51                       # Per bank write bursts (Count)
system.mem_ctrl.dram.perBankRdBursts::8            95                       # Per bank write bursts (Count)
system.mem_ctrl.dram.perBankRdBursts::9            33                       # Per bank write bursts (Count)
system.mem_ctrl.dram.perBankRdBursts::10           79                       # Per bank write bursts (Count)
system.mem_ctrl.dram.perBankRdBursts::11          129                       # Per bank write bursts (Count)
system.mem_ctrl.dram.perBankRdBursts::12          159                       # Per bank write bursts (Count)
system.mem_ctrl.dram.perBankRdBursts::13          121                       # Per bank write bursts (Count)
system.mem_ctrl.dram.perBankRdBursts::14           19                       # Per bank write bursts (Count)
system.mem_ctrl.dram.perBankRdBursts::15           19                       # Per bank write bursts (Count)
system.mem_ctrl.dram.perBankWrBursts::0             0                       # Per bank write bursts (Count)
system.mem_ctrl.dram.perBankWrBursts::1             0                       # Per bank write bursts (Count)
system.mem_ctrl.dram.perBankWrBursts::2             0                       # Per bank write bursts (Count)
system.mem_ctrl.dram.perBankWrBursts::3             0                       # Per bank write bursts (Count)
system.mem_ctrl.dram.perBankWrBursts::4             0                       # Per bank write bursts (Count)
system.mem_ctrl.dram.perBankWrBursts::5             0                       # Per bank write bursts (Count)
system.mem_ctrl.dram.perBankWrBursts::6             0                       # Per bank write bursts (Count)
system.mem_ctrl.dram.perBankWrBursts::7             0                       # Per bank write bursts (Count)
system.mem_ctrl.dram.perBankWrBursts::8             0                       # Per bank write bursts (Count)
system.mem_ctrl.dram.perBankWrBursts::9             0                       # Per bank write bursts (Count)
system.mem_ctrl.dram.perBankWrBursts::10            0                       # Per bank write bursts (Count)
system.mem_ctrl.dram.perBankWrBursts::11            0                       # Per bank write bursts (Count)
system.mem_ctrl.dram.perBankWrBursts::12            0                       # Per bank write bursts (Count)
system.mem_ctrl.dram.perBankWrBursts::13            0                       # Per bank write bursts (Count)
system.mem_ctrl.dram.perBankWrBursts::14            0                       # Per bank write bursts (Count)
system.mem_ctrl.dram.perBankWrBursts::15            0                       # Per bank write bursts (Count)
system.mem_ctrl.dram.totQLat                 11137750                       # Total ticks spent queuing (Tick)
system.mem_ctrl.dram.totBusLat                5215000                       # Total ticks spent in databus transfers (Tick)
system.mem_ctrl.dram.totMemAccLat            30694000                       # Total ticks spent from burst creation until serviced by the DRAM (Tick)
system.mem_ctrl.dram.avgQLat                 10678.57                       # Average queueing delay per DRAM burst ((Tick/Count))
system.mem_ctrl.dram.avgBusLat                5000.00                       # Average bus latency per DRAM burst ((Tick/Count))
system.mem_ctrl.dram.avgMemAccLat            29428.57                       # Average memory access latency per DRAM burst ((Tick/Count))
system.mem_ctrl.dram.readRowHits                  791                       # Number of row buffer hits during reads (Count)
system.mem_ctrl.dram.writeRowHits                   0                       # Number of row buffer hits during writes (Count)
system.mem_ctrl.dram.readRowHitRate             75.84                       # Row buffer hit rate for reads (Ratio)
system.mem_ctrl.dram.writeRowHitRate              nan                       # Row buffer hit rate for writes (Ratio)
system.mem_ctrl.dram.bytesPerActivate::samples          248                       # Bytes accessed per row activation (Byte)
system.mem_ctrl.dram.bytesPerActivate::mean   267.096774                       # Bytes accessed per row activation (Byte)
system.mem_ctrl.dram.bytesPerActivate::gmean   171.223368                       # Bytes accessed per row activation (Byte)
system.mem_ctrl.dram.bytesPerActivate::stdev   274.974373                       # Bytes accessed per row activation (Byte)
system.mem_ctrl.dram.bytesPerActivate::0-127           86     34.68%     34.68% # Bytes accessed per row activation (Byte)
system.mem_ctrl.dram.bytesPerActivate::128-255           65     26.21%     60.89% # Bytes accessed per row activation (Byte)
system.mem_ctrl.dram.bytesPerActivate::256-383           32     12.90%     73.79% # Bytes accessed per row activation (Byte)
system.mem_ctrl.dram.bytesPerActivate::384-511           28     11.29%     85.08% # Bytes accessed per row activation (Byte)
system.mem_ctrl.dram.bytesPerActivate::512-639            7      2.82%     87.90% # Bytes accessed per row activation (Byte)
system.mem_ctrl.dram.bytesPerActivate::640-767            4      1.61%     89.52% # Bytes accessed per row activation (Byte)
system.mem_ctrl.dram.bytesPerActivate::768-895            7      2.82%     92.34% # Bytes accessed per row activation (Byte)
system.mem_ctrl.dram.bytesPerActivate::896-1023            5      2.02%     94.35% # Bytes accessed per row activation (Byte)
system.mem_ctrl.dram.bytesPerActivate::1024-1151           14      5.65%    100.00% # Bytes accessed per row activation (Byte)
system.mem_ctrl.dram.bytesPerActivate::total          248                       # Bytes accessed per row activation (Byte)
system.mem_ctrl.dram.bytesRead                  66752                       # Total bytes read (Byte)
system.mem_ctrl.dram.bytesWritten                   0                       # Total bytes written (Byte)
system.mem_ctrl.dram.avgRdBW               466.852703                       # Average DRAM read bandwidth in MiBytes/s ((Byte/Second))
system.mem_ctrl.dram.avgWrBW                        0                       # Average DRAM write bandwidth in MiBytes/s ((Byte/Second))
system.mem_ctrl.dram.peakBW                  12800.00                       # Theoretical peak bandwidth in MiByte/s ((Byte/Second))
system.mem_ctrl.dram.busUtil                     3.65                       # Data bus utilization in percentage (Ratio)
system.mem_ctrl.dram.busUtilRead                 3.65                       # Data bus utilization in percentage for reads (Ratio)
system.mem_ctrl.dram.busUtilWrite                0.00                       # Data bus utilization in percentage for writes (Ratio)
system.mem_ctrl.dram.pageHitRate                75.84                       # Row buffer hit rate, read and write combined (Ratio)
system.mem_ctrl.dram.power_state.pwrStateResidencyTicks::UNDEFINED    142983000                       # Cumulative time (in ticks) in various power states (Tick)
system.mem_ctrl.dram.rank0.actEnergy           792540                       # Energy for activate commands per rank (pJ) (Joule)
system.mem_ctrl.dram.rank0.preEnergy           421245                       # Energy for precharge commands per rank (pJ) (Joule)
system.mem_ctrl.dram.rank0.readEnergy         2777460                       # Energy for read commands per rank (pJ) (Joule)
system.mem_ctrl.dram.rank0.writeEnergy              0                       # Energy for write commands per rank (pJ) (Joule)
system.mem_ctrl.dram.rank0.refreshEnergy 11063520.000000                       # Energy for refresh commands per rank (pJ) (Joule)
system.mem_ctrl.dram.rank0.actBackEnergy     32551560                       # Energy for active background per rank (pJ) (Joule)
system.mem_ctrl.dram.rank0.preBackEnergy     27493920                       # Energy for precharge background per rank (pJ) (Joule)
system.mem_ctrl.dram.rank0.actPowerDownEnergy            0                       # Energy for active power-down per rank (pJ) (Joule)
system.mem_ctrl.dram.rank0.prePowerDownEnergy            0                       # Energy for precharge power-down per rank (pJ) (Joule)
system.mem_ctrl.dram.rank0.selfRefreshEnergy            0                       # Energy for self refresh per rank (pJ) (Joule)
system.mem_ctrl.dram.rank0.totalEnergy       75100245                       # Total energy per rank (pJ) (Joule)
system.mem_ctrl.dram.rank0.averagePower    525.238979                       # Core power per rank (mW) (Watt)
system.mem_ctrl.dram.rank0.totalIdleTime            0                       # Total Idle time Per DRAM Rank (Tick)
system.mem_ctrl.dram.rank0.pwrStateTime::IDLE     71224500                       # Time in different power states (Tick)
system.mem_ctrl.dram.rank0.pwrStateTime::REF      4680000                       # Time in different power states (Tick)
system.mem_ctrl.dram.rank0.pwrStateTime::SREF            0                       # Time in different power states (Tick)
system.mem_ctrl.dram.rank0.pwrStateTime::PRE_PDN            0                       # Time in different power states (Tick)
system.mem_ctrl.dram.rank0.pwrStateTime::ACT     67078500                       # Time in different power states (Tick)
system.mem_ctrl.dram.rank0.pwrStateTime::ACT_PDN            0                       # Time in different power states (Tick)
system.mem_ctrl.dram.rank1.actEnergy          1006740                       # Energy for activate commands per rank (pJ) (Joule)
system.mem_ctrl.dram.rank1.preEnergy           519915                       # Energy for precharge commands per rank (pJ) (Joule)
system.mem_ctrl.dram.rank1.readEnergy         4669560                       # Energy for read commands per rank (pJ) (Joule)
system.mem_ctrl.dram.rank1.writeEnergy              0                       # Energy for write commands per rank (pJ) (Joule)
system.mem_ctrl.dram.rank1.refreshEnergy 11063520.000000                       # Energy for refresh commands per rank (pJ) (Joule)
system.mem_ctrl.dram.rank1.actBackEnergy     62245140                       # Energy for active background per rank (pJ) (Joule)
system.mem_ctrl.dram.rank1.preBackEnergy      2488800                       # Energy for precharge background per rank (pJ) (Joule)
system.mem_ctrl.dram.rank1.actPowerDownEnergy            0                       # Energy for active power-down per rank (pJ) (Joule)
system.mem_ctrl.dram.rank1.prePowerDownEnergy            0                       # Energy for precharge power-down per rank (pJ) (Joule)
system.mem_ctrl.dram.rank1.selfRefreshEnergy            0                       # Energy for self refresh per rank (pJ) (Joule)
system.mem_ctrl.dram.rank1.totalEnergy       81993675                       # Total energy per rank (pJ) (Joule)
system.mem_ctrl.dram.rank1.averagePower    573.450515                       # Core power per rank (mW) (Watt)
system.mem_ctrl.dram.rank1.totalIdleTime            0                       # Total Idle time Per DRAM Rank (Tick)
system.mem_ctrl.dram.rank1.pwrStateTime::IDLE      5882500                       # Time in different power states (Tick)
system.mem_ctrl.dram.rank1.pwrStateTime::REF      4680000                       # Time in different power states (Tick)
system.mem_ctrl.dram.rank1.pwrStateTime::SREF            0                       # Time in different power states (Tick)
system.mem_ctrl.dram.rank1.pwrStateTime::PRE_PDN            0                       # Time in different power states (Tick)
system.mem_ctrl.dram.rank1.pwrStateTime::ACT    132420500                       # Time in different power states (Tick)
system.mem_ctrl.dram.rank1.pwrStateTime::ACT_PDN            0                       # Time in different power states (Tick)
system.mem_ctrl.power_state.pwrStateResidencyTicks::UNDEFINED    142983000                       # Cumulative time (in ticks) in various power states (Tick)
system.membus.transDist::ReadResp                 743                       # Transaction distribution (Count)
system.membus.transDist::ReadExReq                300                       # Transaction distribution (Count)
system.membus.transDist::ReadExResp               300                       # Transaction distribution (Count)
system.membus.transDist::ReadSharedReq            743                       # Transaction distribution (Count)
system.membus.pktCount_system.l2cache.mem_side_port::system.mem_ctrl.port         2086                       # Packet count per connected requestor and responder (Count)
system.membus.pktCount_system.l2cache.mem_side_port::total         2086                       # Packet count per connected requestor and responder (Count)
system.membus.pktCount::total                    2086                       # Packet count per connected requestor and responder (Count)
system.membus.pktSize_system.l2cache.mem_side_port::system.mem_ctrl.port        66752                       # Cumulative packet size per connected requestor and responder (Byte)
system.membus.pktSize_system.l2cache.mem_side_port::total        66752                       # Cumulative packet size per connected requestor and responder (Byte)
system.membus.pktSize::total                    66752                       # Cumulative packet size per connected requestor and responder (Byte)
system.membus.snoops                                0                       # Total snoops (Count)
system.membus.snoopTraffic                          0                       # Total snoop traffic (Byte)
system.membus.snoopFanout::samples               1043                       # Request fanout histogram (Count)
system.membus.snoopFanout::mean                     0                       # Request fanout histogram (Count)
system.membus.snoopFanout::stdev                    0                       # Request fanout histogram (Count)
system.membus.snoopFanout::underflows               0      0.00%      0.00% # Request fanout histogram (Count)
system.membus.snoopFanout::0                     1043    100.00%    100.00% # Request fanout histogram (Count)
system.membus.snoopFanout::1                        0      0.00%    100.00% # Request fanout histogram (Count)
system.membus.snoopFanout::overflows                0      0.00%    100.00% # Request fanout histogram (Count)
system.membus.snoopFanout::min_value                0                       # Request fanout histogram (Count)
system.membus.snoopFanout::max_value                0                       # Request fanout histogram (Count)
system.membus.snoopFanout::total                 1043                       # Request fanout histogram (Count)
system.membus.power_state.pwrStateResidencyTicks::UNDEFINED    142983000                       # Cumulative time (in ticks) in various power states (Tick)
system.membus.reqLayer2.occupancy             1043000                       # Layer occupancy (ticks) (Tick)
system.membus.reqLayer2.utilization               0.0                       # Layer utilization (Ratio)
system.membus.respLayer0.occupancy            5541750                       # Layer occupancy (ticks) (Tick)
system.membus.respLayer0.utilization              0.0                       # Layer utilization (Ratio)
system.membus.snoop_filter.totRequests           1043                       # Total number of requests made to the snoop filter. (Count)
system.membus.snoop_filter.hitSingleRequests            0                       # Number of requests hitting in the snoop filter with a single holder of the requested data. (Count)
system.membus.snoop_filter.hitMultiRequests            0                       # Number of requests hitting in the snoop filter with multiple (>1) holders of the requested data. (Count)
system.membus.snoop_filter.totSnoops                0                       # Total number of snoops made to the snoop filter. (Count)
system.membus.snoop_filter.hitSingleSnoops            0                       # Number of snoops hitting in the snoop filter with a single holder of the requested data. (Count)
system.membus.snoop_filter.hitMultiSnoops            0                       # Number of snoops hitting in the snoop filter with multiple (>1) holders of the requested data. (Count)
system.workload.inst.arm                            0                       # number of arm instructions executed (Count)
system.workload.inst.quiesce                        0                       # number of quiesce instructions executed (Count)

---------- End Simulation Statistics   ----------
