
---------- Begin Simulation Statistics ----------
simSeconds                                   0.036477                       # Number of seconds simulated (Second)
simTicks                                  36477025000                       # Number of ticks simulated (Tick)
finalTick                                 36477025000                       # Number of ticks from beginning of simulation (restored from checkpoints and never reset) (Tick)
simFreq                                  1000000000000                       # The number of ticks per simulated second ((Tick/Second))
hostSeconds                                    199.74                       # Real time elapsed on the host (Second)
hostTickRate                                182622637                       # The number of ticks simulated per host second (ticks/s) ((Tick/Second))
hostMemory                                    8543336                       # Number of bytes of host memory used (Byte)
simInsts                                     50000003                       # Number of instructions simulated (Count)
simOps                                       65070782                       # Number of ops (including micro ops) simulated (Count)
hostInstRate                                   250325                       # Simulator instruction rate (inst/s) ((Count/Second))
hostOpRate                                     325777                       # Simulator op (including micro ops) rate (op/s) ((Count/Second))
system.clk_domain.clock                          1000                       # Clock period in ticks (Tick)
system.clk_domain.voltage_domain.voltage            1                       # Voltage in Volts (Volt)
system.cpu.numCycles                         36477026                       # Number of cpu cycles simulated (Cycle)
system.cpu.numWorkItemsStarted                      0                       # Number of work items this cpu started (Count)
system.cpu.numWorkItemsCompleted                    0                       # Number of work items this cpu completed (Count)
system.cpu.instsAdded                       100333605                       # Number of instructions added to the IQ (excludes non-spec) (Count)
system.cpu.nonSpecInstsAdded                     3165                       # Number of non-speculative instructions added to the IQ (Count)
system.cpu.instsIssued                       85784766                       # Number of instructions issued (Count)
system.cpu.squashedInstsIssued                 106733                       # Number of squashed instructions issued (Count)
system.cpu.squashedInstsExamined             35265933                       # Number of squashed instructions iterated over during squash; mainly for profiling (Count)
system.cpu.squashedOperandsExamined          72366444                       # Number of squashed operands that are examined and possibly removed from graph (Count)
system.cpu.squashedNonSpecRemoved                2835                       # Number of squashed non-spec instructions that were removed (Count)
system.cpu.numIssuedDist::samples            36412759                       # Number of insts issued each cycle (Count)
system.cpu.numIssuedDist::mean               2.355899                       # Number of insts issued each cycle (Count)
system.cpu.numIssuedDist::stdev              1.953289                       # Number of insts issued each cycle (Count)
system.cpu.numIssuedDist::underflows                0      0.00%      0.00% # Number of insts issued each cycle (Count)
system.cpu.numIssuedDist::0                   9014156     24.76%     24.76% # Number of insts issued each cycle (Count)
system.cpu.numIssuedDist::1                   4815244     13.22%     37.98% # Number of insts issued each cycle (Count)
system.cpu.numIssuedDist::2                   6471052     17.77%     55.75% # Number of insts issued each cycle (Count)
system.cpu.numIssuedDist::3                   5667189     15.56%     71.31% # Number of insts issued each cycle (Count)
system.cpu.numIssuedDist::4                   4655701     12.79%     84.10% # Number of insts issued each cycle (Count)
system.cpu.numIssuedDist::5                   3219633      8.84%     92.94% # Number of insts issued each cycle (Count)
system.cpu.numIssuedDist::6                   1837803      5.05%     97.99% # Number of insts issued each cycle (Count)
system.cpu.numIssuedDist::7                    577784      1.59%     99.58% # Number of insts issued each cycle (Count)
system.cpu.numIssuedDist::8                    154197      0.42%    100.00% # Number of insts issued each cycle (Count)
system.cpu.numIssuedDist::overflows                 0      0.00%    100.00% # Number of insts issued each cycle (Count)
system.cpu.numIssuedDist::min_value                 0                       # Number of insts issued each cycle (Count)
system.cpu.numIssuedDist::max_value                 8                       # Number of insts issued each cycle (Count)
system.cpu.numIssuedDist::total              36412759                       # Number of insts issued each cycle (Count)
system.cpu.statFuBusy::No_OpClass                   0      0.00%      0.00% # attempts to use FU when none available (Count)
system.cpu.statFuBusy::IntAlu                   81796      8.77%      8.77% # attempts to use FU when none available (Count)
system.cpu.statFuBusy::IntMult                      0      0.00%      8.77% # attempts to use FU when none available (Count)
system.cpu.statFuBusy::IntDiv                       0      0.00%      8.77% # attempts to use FU when none available (Count)
system.cpu.statFuBusy::FloatAdd                     3      0.00%      8.77% # attempts to use FU when none available (Count)
system.cpu.statFuBusy::FloatCmp                     0      0.00%      8.77% # attempts to use FU when none available (Count)
system.cpu.statFuBusy::FloatCvt                     0      0.00%      8.77% # attempts to use FU when none available (Count)
system.cpu.statFuBusy::FloatMult                    0      0.00%      8.77% # attempts to use FU when none available (Count)
system.cpu.statFuBusy::FloatMultAcc                 0      0.00%      8.77% # attempts to use FU when none available (Count)
system.cpu.statFuBusy::FloatDiv                     0      0.00%      8.77% # attempts to use FU when none available (Count)
system.cpu.statFuBusy::FloatMisc                    0      0.00%      8.77% # attempts to use FU when none available (Count)
system.cpu.statFuBusy::FloatSqrt                    0      0.00%      8.77% # attempts to use FU when none available (Count)
system.cpu.statFuBusy::SimdAdd                      0      0.00%      8.77% # attempts to use FU when none available (Count)
system.cpu.statFuBusy::SimdAddAcc                   0      0.00%      8.77% # attempts to use FU when none available (Count)
system.cpu.statFuBusy::SimdAlu                  17895      1.92%     10.69% # attempts to use FU when none available (Count)
system.cpu.statFuBusy::SimdCmp                      0      0.00%     10.69% # attempts to use FU when none available (Count)
system.cpu.statFuBusy::SimdCvt                  12778      1.37%     12.06% # attempts to use FU when none available (Count)
system.cpu.statFuBusy::SimdMisc                    27      0.00%     12.06% # attempts to use FU when none available (Count)
system.cpu.statFuBusy::SimdMult                     0      0.00%     12.06% # attempts to use FU when none available (Count)
system.cpu.statFuBusy::SimdMultAcc                  0      0.00%     12.06% # attempts to use FU when none available (Count)
system.cpu.statFuBusy::SimdShift                   18      0.00%     12.06% # attempts to use FU when none available (Count)
system.cpu.statFuBusy::SimdShiftAcc                 0      0.00%     12.06% # attempts to use FU when none available (Count)
system.cpu.statFuBusy::SimdDiv                      0      0.00%     12.06% # attempts to use FU when none available (Count)
system.cpu.statFuBusy::SimdSqrt                     0      0.00%     12.06% # attempts to use FU when none available (Count)
system.cpu.statFuBusy::SimdFloatAdd                 2      0.00%     12.06% # attempts to use FU when none available (Count)
system.cpu.statFuBusy::SimdFloatAlu                 0      0.00%     12.06% # attempts to use FU when none available (Count)
system.cpu.statFuBusy::SimdFloatCmp                 0      0.00%     12.06% # attempts to use FU when none available (Count)
system.cpu.statFuBusy::SimdFloatCvt                19      0.00%     12.06% # attempts to use FU when none available (Count)
system.cpu.statFuBusy::SimdFloatDiv                 0      0.00%     12.06% # attempts to use FU when none available (Count)
system.cpu.statFuBusy::SimdFloatMisc                0      0.00%     12.06% # attempts to use FU when none available (Count)
system.cpu.statFuBusy::SimdFloatMult                4      0.00%     12.06% # attempts to use FU when none available (Count)
system.cpu.statFuBusy::SimdFloatMultAcc             0      0.00%     12.06% # attempts to use FU when none available (Count)
system.cpu.statFuBusy::SimdFloatSqrt                0      0.00%     12.06% # attempts to use FU when none available (Count)
system.cpu.statFuBusy::SimdReduceAdd                0      0.00%     12.06% # attempts to use FU when none available (Count)
system.cpu.statFuBusy::SimdReduceAlu                0      0.00%     12.06% # attempts to use FU when none available (Count)
system.cpu.statFuBusy::SimdReduceCmp                0      0.00%     12.06% # attempts to use FU when none available (Count)
system.cpu.statFuBusy::SimdFloatReduceAdd            0      0.00%     12.06% # attempts to use FU when none available (Count)
system.cpu.statFuBusy::SimdFloatReduceCmp            0      0.00%     12.06% # attempts to use FU when none available (Count)
system.cpu.statFuBusy::SimdAes                      0      0.00%     12.06% # attempts to use FU when none available (Count)
system.cpu.statFuBusy::SimdAesMix                   0      0.00%     12.06% # attempts to use FU when none available (Count)
system.cpu.statFuBusy::SimdSha1Hash                 0      0.00%     12.06% # attempts to use FU when none available (Count)
system.cpu.statFuBusy::SimdSha1Hash2                0      0.00%     12.06% # attempts to use FU when none available (Count)
system.cpu.statFuBusy::SimdSha256Hash               0      0.00%     12.06% # attempts to use FU when none available (Count)
system.cpu.statFuBusy::SimdSha256Hash2              0      0.00%     12.06% # attempts to use FU when none available (Count)
system.cpu.statFuBusy::SimdShaSigma2                0      0.00%     12.06% # attempts to use FU when none available (Count)
system.cpu.statFuBusy::SimdShaSigma3                0      0.00%     12.06% # attempts to use FU when none available (Count)
system.cpu.statFuBusy::SimdPredAlu                  0      0.00%     12.06% # attempts to use FU when none available (Count)
system.cpu.statFuBusy::MemRead                 746087     79.97%     92.03% # attempts to use FU when none available (Count)
system.cpu.statFuBusy::MemWrite                 73035      7.83%     99.86% # attempts to use FU when none available (Count)
system.cpu.statFuBusy::FloatMemRead              1223      0.13%     99.99% # attempts to use FU when none available (Count)
system.cpu.statFuBusy::FloatMemWrite               72      0.01%    100.00% # attempts to use FU when none available (Count)
system.cpu.statFuBusy::IprAccess                    0      0.00%    100.00% # attempts to use FU when none available (Count)
system.cpu.statFuBusy::InstPrefetch                 0      0.00%    100.00% # attempts to use FU when none available (Count)
system.cpu.statIssuedInstType_0::No_OpClass        29430      0.03%      0.03% # Number of instructions issued per FU type, per thread (Count)
system.cpu.statIssuedInstType_0::IntAlu      47928671     55.87%     55.91% # Number of instructions issued per FU type, per thread (Count)
system.cpu.statIssuedInstType_0::IntMult        71421      0.08%     55.99% # Number of instructions issued per FU type, per thread (Count)
system.cpu.statIssuedInstType_0::IntDiv        701651      0.82%     56.81% # Number of instructions issued per FU type, per thread (Count)
system.cpu.statIssuedInstType_0::FloatAdd      1522242      1.77%     58.58% # Number of instructions issued per FU type, per thread (Count)
system.cpu.statIssuedInstType_0::FloatCmp            0      0.00%     58.58% # Number of instructions issued per FU type, per thread (Count)
system.cpu.statIssuedInstType_0::FloatCvt            0      0.00%     58.58% # Number of instructions issued per FU type, per thread (Count)
system.cpu.statIssuedInstType_0::FloatMult            0      0.00%     58.58% # Number of instructions issued per FU type, per thread (Count)
system.cpu.statIssuedInstType_0::FloatMultAcc            0      0.00%     58.58% # Number of instructions issued per FU type, per thread (Count)
system.cpu.statIssuedInstType_0::FloatDiv            0      0.00%     58.58% # Number of instructions issued per FU type, per thread (Count)
system.cpu.statIssuedInstType_0::FloatMisc            0      0.00%     58.58% # Number of instructions issued per FU type, per thread (Count)
system.cpu.statIssuedInstType_0::FloatSqrt            0      0.00%     58.58% # Number of instructions issued per FU type, per thread (Count)
system.cpu.statIssuedInstType_0::SimdAdd          530      0.00%     58.58% # Number of instructions issued per FU type, per thread (Count)
system.cpu.statIssuedInstType_0::SimdAddAcc            0      0.00%     58.58% # Number of instructions issued per FU type, per thread (Count)
system.cpu.statIssuedInstType_0::SimdAlu       117529      0.14%     58.72% # Number of instructions issued per FU type, per thread (Count)
system.cpu.statIssuedInstType_0::SimdCmp          258      0.00%     58.72% # Number of instructions issued per FU type, per thread (Count)
system.cpu.statIssuedInstType_0::SimdCvt       137241      0.16%     58.88% # Number of instructions issued per FU type, per thread (Count)
system.cpu.statIssuedInstType_0::SimdMisc       252654      0.29%     59.17% # Number of instructions issued per FU type, per thread (Count)
system.cpu.statIssuedInstType_0::SimdMult            0      0.00%     59.17% # Number of instructions issued per FU type, per thread (Count)
system.cpu.statIssuedInstType_0::SimdMultAcc            0      0.00%     59.17% # Number of instructions issued per FU type, per thread (Count)
system.cpu.statIssuedInstType_0::SimdShift          187      0.00%     59.17% # Number of instructions issued per FU type, per thread (Count)
system.cpu.statIssuedInstType_0::SimdShiftAcc            0      0.00%     59.17% # Number of instructions issued per FU type, per thread (Count)
system.cpu.statIssuedInstType_0::SimdDiv            0      0.00%     59.17% # Number of instructions issued per FU type, per thread (Count)
system.cpu.statIssuedInstType_0::SimdSqrt            0      0.00%     59.17% # Number of instructions issued per FU type, per thread (Count)
system.cpu.statIssuedInstType_0::SimdFloatAdd       188496      0.22%     59.39% # Number of instructions issued per FU type, per thread (Count)
system.cpu.statIssuedInstType_0::SimdFloatAlu            0      0.00%     59.39% # Number of instructions issued per FU type, per thread (Count)
system.cpu.statIssuedInstType_0::SimdFloatCmp            0      0.00%     59.39% # Number of instructions issued per FU type, per thread (Count)
system.cpu.statIssuedInstType_0::SimdFloatCvt       360411      0.42%     59.81% # Number of instructions issued per FU type, per thread (Count)
system.cpu.statIssuedInstType_0::SimdFloatDiv        43911      0.05%     59.86% # Number of instructions issued per FU type, per thread (Count)
system.cpu.statIssuedInstType_0::SimdFloatMisc            0      0.00%     59.86% # Number of instructions issued per FU type, per thread (Count)
system.cpu.statIssuedInstType_0::SimdFloatMult        40507      0.05%     59.91% # Number of instructions issued per FU type, per thread (Count)
system.cpu.statIssuedInstType_0::SimdFloatMultAcc            0      0.00%     59.91% # Number of instructions issued per FU type, per thread (Count)
system.cpu.statIssuedInstType_0::SimdFloatSqrt            0      0.00%     59.91% # Number of instructions issued per FU type, per thread (Count)
system.cpu.statIssuedInstType_0::SimdReduceAdd            0      0.00%     59.91% # Number of instructions issued per FU type, per thread (Count)
system.cpu.statIssuedInstType_0::SimdReduceAlu            0      0.00%     59.91% # Number of instructions issued per FU type, per thread (Count)
system.cpu.statIssuedInstType_0::SimdReduceCmp            0      0.00%     59.91% # Number of instructions issued per FU type, per thread (Count)
system.cpu.statIssuedInstType_0::SimdFloatReduceAdd            0      0.00%     59.91% # Number of instructions issued per FU type, per thread (Count)
system.cpu.statIssuedInstType_0::SimdFloatReduceCmp            0      0.00%     59.91% # Number of instructions issued per FU type, per thread (Count)
system.cpu.statIssuedInstType_0::SimdAes            0      0.00%     59.91% # Number of instructions issued per FU type, per thread (Count)
system.cpu.statIssuedInstType_0::SimdAesMix            0      0.00%     59.91% # Number of instructions issued per FU type, per thread (Count)
system.cpu.statIssuedInstType_0::SimdSha1Hash            0      0.00%     59.91% # Number of instructions issued per FU type, per thread (Count)
system.cpu.statIssuedInstType_0::SimdSha1Hash2            0      0.00%     59.91% # Number of instructions issued per FU type, per thread (Count)
system.cpu.statIssuedInstType_0::SimdSha256Hash            0      0.00%     59.91% # Number of instructions issued per FU type, per thread (Count)
system.cpu.statIssuedInstType_0::SimdSha256Hash2            0      0.00%     59.91% # Number of instructions issued per FU type, per thread (Count)
system.cpu.statIssuedInstType_0::SimdShaSigma2            0      0.00%     59.91% # Number of instructions issued per FU type, per thread (Count)
system.cpu.statIssuedInstType_0::SimdShaSigma3            0      0.00%     59.91% # Number of instructions issued per FU type, per thread (Count)
system.cpu.statIssuedInstType_0::SimdPredAlu            0      0.00%     59.91% # Number of instructions issued per FU type, per thread (Count)
system.cpu.statIssuedInstType_0::MemRead     29042413     33.85%     93.77% # Number of instructions issued per FU type, per thread (Count)
system.cpu.statIssuedInstType_0::MemWrite      4234733      4.94%     98.70% # Number of instructions issued per FU type, per thread (Count)
system.cpu.statIssuedInstType_0::FloatMemRead       906897      1.06%     99.76% # Number of instructions issued per FU type, per thread (Count)
system.cpu.statIssuedInstType_0::FloatMemWrite       205584      0.24%    100.00% # Number of instructions issued per FU type, per thread (Count)
system.cpu.statIssuedInstType_0::IprAccess            0      0.00%    100.00% # Number of instructions issued per FU type, per thread (Count)
system.cpu.statIssuedInstType_0::InstPrefetch            0      0.00%    100.00% # Number of instructions issued per FU type, per thread (Count)
system.cpu.statIssuedInstType_0::total       85784766                       # Number of instructions issued per FU type, per thread (Count)
system.cpu.issueRate                         2.351748                       # Inst issue rate ((Count/Cycle))
system.cpu.fuBusy                              932959                       # FU busy when requested (Count)
system.cpu.fuBusyRate                        0.010876                       # FU busy rate (busy events/executed inst) ((Count/Count))
system.cpu.intInstQueueReads                201152428                       # Number of integer instruction queue reads (Count)
system.cpu.intInstQueueWrites               128939308                       # Number of integer instruction queue writes (Count)
system.cpu.intInstQueueWakeupAccesses        80177439                       # Number of integer instruction queue wakeup accesses (Count)
system.cpu.fpInstQueueReads                   7869550                       # Number of floating instruction queue reads (Count)
system.cpu.fpInstQueueWrites                  6668545                       # Number of floating instruction queue writes (Count)
system.cpu.fpInstQueueWakeupAccesses          3842932                       # Number of floating instruction queue wakeup accesses (Count)
system.cpu.vecInstQueueReads                        0                       # Number of vector instruction queue reads (Count)
system.cpu.vecInstQueueWrites                       0                       # Number of vector instruction queue writes (Count)
system.cpu.vecInstQueueWakeupAccesses               0                       # Number of vector instruction queue wakeup accesses (Count)
system.cpu.intAluAccesses                    82737830                       # Number of integer alu accesses (Count)
system.cpu.fpAluAccesses                      3950465                       # Number of floating point alu accesses (Count)
system.cpu.vecAluAccesses                           0                       # Number of vector alu accesses (Count)
system.cpu.numInsts                          84862545                       # Number of executed instructions (Count)
system.cpu.numLoadInsts                      29308133                       # Number of load instructions executed (Count)
system.cpu.numSquashedInsts                    922216                       # Number of squashed instructions skipped in execute (Count)
system.cpu.numSwp                                   0                       # Number of swp insts executed (Count)
system.cpu.numNop                                   0                       # Number of nop insts executed (Count)
system.cpu.numRefs                           33684469                       # Number of memory reference insts executed (Count)
system.cpu.numBranches                        3328477                       # Number of branches executed (Count)
system.cpu.numStoreInsts                      4376336                       # Number of stores executed (Count)
system.cpu.numRate                           2.326466                       # Inst execution rate ((Count/Cycle))
system.cpu.timesIdled                            1090                       # Number of times that the entire CPU went into an idle state and unscheduled itself (Count)
system.cpu.idleCycles                           64267                       # Total number of cycles that the CPU has spent unscheduled due to idling (Cycle)
system.cpu.committedInsts                    50000003                       # Number of Instructions Simulated (Count)
system.cpu.committedOps                      65070782                       # Number of Ops (including micro ops) Simulated (Count)
system.cpu.cpi                               0.729540                       # CPI: Cycles Per Instruction ((Cycle/Count))
system.cpu.totalCpi                          0.729540                       # CPI: Total CPI of All Threads ((Cycle/Count))
system.cpu.ipc                               1.370726                       # IPC: Instructions Per Cycle ((Count/Cycle))
system.cpu.totalIpc                          1.370726                       # IPC: Total IPC of All Threads ((Count/Cycle))
system.cpu.intRegfileReads                  108297078                       # Number of integer regfile reads (Count)
system.cpu.intRegfileWrites                  71558185                       # Number of integer regfile writes (Count)
system.cpu.fpRegfileReads                     3049626                       # Number of floating regfile reads (Count)
system.cpu.fpRegfileWrites                    3382860                       # Number of floating regfile writes (Count)
system.cpu.ccRegfileReads                    21776867                       # number of cc regfile reads (Count)
system.cpu.ccRegfileWrites                   31212280                       # number of cc regfile writes (Count)
system.cpu.miscRegfileReads                  41257170                       # number of misc regfile reads (Count)
system.cpu.MemDepUnit__0.insertedLoads       33368379                       # Number of loads inserted to the mem dependence unit. (Count)
system.cpu.MemDepUnit__0.insertedStores       5681796                       # Number of stores inserted to the mem dependence unit. (Count)
system.cpu.MemDepUnit__0.conflictingLoads      9127866                       # Number of conflicting loads. (Count)
system.cpu.MemDepUnit__0.conflictingStores      1799516                       # Number of conflicting stores. (Count)
system.cpu.MemDepUnit__1.insertedLoads              0                       # Number of loads inserted to the mem dependence unit. (Count)
system.cpu.MemDepUnit__1.insertedStores             0                       # Number of stores inserted to the mem dependence unit. (Count)
system.cpu.MemDepUnit__1.conflictingLoads            0                       # Number of conflicting loads. (Count)
system.cpu.MemDepUnit__1.conflictingStores            0                       # Number of conflicting stores. (Count)
system.cpu.MemDepUnit__2.insertedLoads              0                       # Number of loads inserted to the mem dependence unit. (Count)
system.cpu.MemDepUnit__2.insertedStores             0                       # Number of stores inserted to the mem dependence unit. (Count)
system.cpu.MemDepUnit__2.conflictingLoads            0                       # Number of conflicting loads. (Count)
system.cpu.MemDepUnit__2.conflictingStores            0                       # Number of conflicting stores. (Count)
system.cpu.MemDepUnit__3.insertedLoads              0                       # Number of loads inserted to the mem dependence unit. (Count)
system.cpu.MemDepUnit__3.insertedStores             0                       # Number of stores inserted to the mem dependence unit. (Count)
system.cpu.MemDepUnit__3.conflictingLoads            0                       # Number of conflicting loads. (Count)
system.cpu.MemDepUnit__3.conflictingStores            0                       # Number of conflicting stores. (Count)
system.cpu.branchPred.lookups                 5789250                       # Number of BP lookups (Count)
system.cpu.branchPred.condPredicted           5362922                       # Number of conditional branches predicted (Count)
system.cpu.branchPred.condIncorrect            543791                       # Number of conditional branches incorrect (Count)
system.cpu.branchPred.BTBLookups              4805059                       # Number of BTB lookups (Count)
system.cpu.branchPred.BTBHits                 4743665                       # Number of BTB hits (Count)
system.cpu.branchPred.BTBHitRatio            0.987223                       # BTB Hit Ratio (Ratio)
system.cpu.branchPred.RASUsed                  154121                       # Number of times the RAS was used to get a target. (Count)
system.cpu.branchPred.RASIncorrect                  6                       # Number of incorrect RAS predictions. (Count)
system.cpu.branchPred.indirectLookups           19761                       # Number of indirect predictor lookups. (Count)
system.cpu.branchPred.indirectHits              17690                       # Number of indirect target hits. (Count)
system.cpu.branchPred.indirectMisses             2071                       # Number of indirect misses. (Count)
system.cpu.branchPred.indirectMispredicted          257                       # Number of mispredicted indirect branches. (Count)
system.cpu.commit.commitSquashedInsts        35265281                       # The number of squashed insts skipped by commit (Count)
system.cpu.commit.commitNonSpecStalls             330                       # The number of times commit has been forced to stall to communicate backwards (Count)
system.cpu.commit.branchMispredicts            532570                       # The number of times a branch was mispredicted (Count)
system.cpu.commit.numCommittedDist::samples     31690628                       # Number of insts commited each cycle (Count)
system.cpu.commit.numCommittedDist::mean     2.053313                       # Number of insts commited each cycle (Count)
system.cpu.commit.numCommittedDist::stdev     2.646411                       # Number of insts commited each cycle (Count)
system.cpu.commit.numCommittedDist::underflows            0      0.00%      0.00% # Number of insts commited each cycle (Count)
system.cpu.commit.numCommittedDist::0        12027016     37.95%     37.95% # Number of insts commited each cycle (Count)
system.cpu.commit.numCommittedDist::1         7900462     24.93%     62.88% # Number of insts commited each cycle (Count)
system.cpu.commit.numCommittedDist::2         3083230      9.73%     72.61% # Number of insts commited each cycle (Count)
system.cpu.commit.numCommittedDist::3         2003515      6.32%     78.93% # Number of insts commited each cycle (Count)
system.cpu.commit.numCommittedDist::4          879299      2.77%     81.71% # Number of insts commited each cycle (Count)
system.cpu.commit.numCommittedDist::5          641090      2.02%     83.73% # Number of insts commited each cycle (Count)
system.cpu.commit.numCommittedDist::6          935757      2.95%     86.68% # Number of insts commited each cycle (Count)
system.cpu.commit.numCommittedDist::7         1105945      3.49%     90.17% # Number of insts commited each cycle (Count)
system.cpu.commit.numCommittedDist::8         3114314      9.83%    100.00% # Number of insts commited each cycle (Count)
system.cpu.commit.numCommittedDist::overflows            0      0.00%    100.00% # Number of insts commited each cycle (Count)
system.cpu.commit.numCommittedDist::min_value            0                       # Number of insts commited each cycle (Count)
system.cpu.commit.numCommittedDist::max_value            8                       # Number of insts commited each cycle (Count)
system.cpu.commit.numCommittedDist::total     31690628                       # Number of insts commited each cycle (Count)
system.cpu.commit.instsCommitted             50000003                       # Number of instructions committed (Count)
system.cpu.commit.opsCommitted               65070782                       # Number of ops (including micro ops) committed (Count)
system.cpu.commit.memRefs                    25501597                       # Number of memory references committed (Count)
system.cpu.commit.loads                      21862333                       # Number of loads committed (Count)
system.cpu.commit.amos                              0                       # Number of atomic instructions committed (Count)
system.cpu.commit.membars                         220                       # Number of memory barriers committed (Count)
system.cpu.commit.branches                    2860070                       # Number of branches committed (Count)
system.cpu.commit.vectorInstructions                0                       # Number of committed Vector instructions. (Count)
system.cpu.commit.floating                    3002095                       # Number of committed floating point instructions. (Count)
system.cpu.commit.integer                    62936732                       # Number of committed integer instructions. (Count)
system.cpu.commit.functionCalls                 82469                       # Number of function calls committed. (Count)
system.cpu.commit.committedInstType_0::No_OpClass        16301      0.03%      0.03% # Class of committed instruction (Count)
system.cpu.commit.committedInstType_0::IntAlu     36916455     56.73%     56.76% # Class of committed instruction (Count)
system.cpu.commit.committedInstType_0::IntMult        70750      0.11%     56.87% # Class of committed instruction (Count)
system.cpu.commit.committedInstType_0::IntDiv       629696      0.97%     57.83% # Class of committed instruction (Count)
system.cpu.commit.committedInstType_0::FloatAdd      1010332      1.55%     59.39% # Class of committed instruction (Count)
system.cpu.commit.committedInstType_0::FloatCmp            0      0.00%     59.39% # Class of committed instruction (Count)
system.cpu.commit.committedInstType_0::FloatCvt            0      0.00%     59.39% # Class of committed instruction (Count)
system.cpu.commit.committedInstType_0::FloatMult            0      0.00%     59.39% # Class of committed instruction (Count)
system.cpu.commit.committedInstType_0::FloatMultAcc            0      0.00%     59.39% # Class of committed instruction (Count)
system.cpu.commit.committedInstType_0::FloatDiv            0      0.00%     59.39% # Class of committed instruction (Count)
system.cpu.commit.committedInstType_0::FloatMisc            0      0.00%     59.39% # Class of committed instruction (Count)
system.cpu.commit.committedInstType_0::FloatSqrt            0      0.00%     59.39% # Class of committed instruction (Count)
system.cpu.commit.committedInstType_0::SimdAdd          450      0.00%     59.39% # Class of committed instruction (Count)
system.cpu.commit.committedInstType_0::SimdAddAcc            0      0.00%     59.39% # Class of committed instruction (Count)
system.cpu.commit.committedInstType_0::SimdAlu        88594      0.14%     59.52% # Class of committed instruction (Count)
system.cpu.commit.committedInstType_0::SimdCmp          204      0.00%     59.52% # Class of committed instruction (Count)
system.cpu.commit.committedInstType_0::SimdCvt        91788      0.14%     59.67% # Class of committed instruction (Count)
system.cpu.commit.committedInstType_0::SimdMisc       206377      0.32%     59.98% # Class of committed instruction (Count)
system.cpu.commit.committedInstType_0::SimdMult            0      0.00%     59.98% # Class of committed instruction (Count)
system.cpu.commit.committedInstType_0::SimdMultAcc            0      0.00%     59.98% # Class of committed instruction (Count)
system.cpu.commit.committedInstType_0::SimdShift          110      0.00%     59.98% # Class of committed instruction (Count)
system.cpu.commit.committedInstType_0::SimdShiftAcc            0      0.00%     59.98% # Class of committed instruction (Count)
system.cpu.commit.committedInstType_0::SimdDiv            0      0.00%     59.98% # Class of committed instruction (Count)
system.cpu.commit.committedInstType_0::SimdSqrt            0      0.00%     59.98% # Class of committed instruction (Count)
system.cpu.commit.committedInstType_0::SimdFloatAdd       185070      0.28%     60.27% # Class of committed instruction (Count)
system.cpu.commit.committedInstType_0::SimdFloatAlu            0      0.00%     60.27% # Class of committed instruction (Count)
system.cpu.commit.committedInstType_0::SimdFloatCmp            0      0.00%     60.27% # Class of committed instruction (Count)
system.cpu.commit.committedInstType_0::SimdFloatCvt       283363      0.44%     60.70% # Class of committed instruction (Count)
system.cpu.commit.committedInstType_0::SimdFloatDiv        32916      0.05%     60.75% # Class of committed instruction (Count)
system.cpu.commit.committedInstType_0::SimdFloatMisc            0      0.00%     60.75% # Class of committed instruction (Count)
system.cpu.commit.committedInstType_0::SimdFloatMult        36779      0.06%     60.81% # Class of committed instruction (Count)
system.cpu.commit.committedInstType_0::SimdFloatMultAcc            0      0.00%     60.81% # Class of committed instruction (Count)
system.cpu.commit.committedInstType_0::SimdFloatSqrt            0      0.00%     60.81% # Class of committed instruction (Count)
system.cpu.commit.committedInstType_0::SimdReduceAdd            0      0.00%     60.81% # Class of committed instruction (Count)
system.cpu.commit.committedInstType_0::SimdReduceAlu            0      0.00%     60.81% # Class of committed instruction (Count)
system.cpu.commit.committedInstType_0::SimdReduceCmp            0      0.00%     60.81% # Class of committed instruction (Count)
system.cpu.commit.committedInstType_0::SimdFloatReduceAdd            0      0.00%     60.81% # Class of committed instruction (Count)
system.cpu.commit.committedInstType_0::SimdFloatReduceCmp            0      0.00%     60.81% # Class of committed instruction (Count)
system.cpu.commit.committedInstType_0::SimdAes            0      0.00%     60.81% # Class of committed instruction (Count)
system.cpu.commit.committedInstType_0::SimdAesMix            0      0.00%     60.81% # Class of committed instruction (Count)
system.cpu.commit.committedInstType_0::SimdSha1Hash            0      0.00%     60.81% # Class of committed instruction (Count)
system.cpu.commit.committedInstType_0::SimdSha1Hash2            0      0.00%     60.81% # Class of committed instruction (Count)
system.cpu.commit.committedInstType_0::SimdSha256Hash            0      0.00%     60.81% # Class of committed instruction (Count)
system.cpu.commit.committedInstType_0::SimdSha256Hash2            0      0.00%     60.81% # Class of committed instruction (Count)
system.cpu.commit.committedInstType_0::SimdShaSigma2            0      0.00%     60.81% # Class of committed instruction (Count)
system.cpu.commit.committedInstType_0::SimdShaSigma3            0      0.00%     60.81% # Class of committed instruction (Count)
system.cpu.commit.committedInstType_0::SimdPredAlu            0      0.00%     60.81% # Class of committed instruction (Count)
system.cpu.commit.committedInstType_0::MemRead     21103150     32.43%     93.24% # Class of committed instruction (Count)
system.cpu.commit.committedInstType_0::MemWrite      3445328      5.29%     98.54% # Class of committed instruction (Count)
system.cpu.commit.committedInstType_0::FloatMemRead       759183      1.17%     99.70% # Class of committed instruction (Count)
system.cpu.commit.committedInstType_0::FloatMemWrite       193936      0.30%    100.00% # Class of committed instruction (Count)
system.cpu.commit.committedInstType_0::IprAccess            0      0.00%    100.00% # Class of committed instruction (Count)
system.cpu.commit.committedInstType_0::InstPrefetch            0      0.00%    100.00% # Class of committed instruction (Count)
system.cpu.commit.committedInstType_0::total     65070782                       # Class of committed instruction (Count)
system.cpu.commit.commitEligibleSamples       3114314                       # number cycles where commit BW limit reached (Cycle)
system.cpu.dcache.demandHits::cpu.data       27580590                       # number of demand (read+write) hits (Count)
system.cpu.dcache.demandHits::total          27580590                       # number of demand (read+write) hits (Count)
system.cpu.dcache.overallHits::cpu.data      27580613                       # number of overall hits (Count)
system.cpu.dcache.overallHits::total         27580613                       # number of overall hits (Count)
system.cpu.dcache.demandMisses::cpu.data       100961                       # number of demand (read+write) misses (Count)
system.cpu.dcache.demandMisses::total          100961                       # number of demand (read+write) misses (Count)
system.cpu.dcache.overallMisses::cpu.data       103884                       # number of overall misses (Count)
system.cpu.dcache.overallMisses::total         103884                       # number of overall misses (Count)
system.cpu.dcache.demandMissLatency::cpu.data   2852810982                       # number of demand (read+write) miss ticks (Tick)
system.cpu.dcache.demandMissLatency::total   2852810982                       # number of demand (read+write) miss ticks (Tick)
system.cpu.dcache.overallMissLatency::cpu.data   2852810982                       # number of overall miss ticks (Tick)
system.cpu.dcache.overallMissLatency::total   2852810982                       # number of overall miss ticks (Tick)
system.cpu.dcache.demandAccesses::cpu.data     27681551                       # number of demand (read+write) accesses (Count)
system.cpu.dcache.demandAccesses::total      27681551                       # number of demand (read+write) accesses (Count)
system.cpu.dcache.overallAccesses::cpu.data     27684497                       # number of overall (read+write) accesses (Count)
system.cpu.dcache.overallAccesses::total     27684497                       # number of overall (read+write) accesses (Count)
system.cpu.dcache.demandMissRate::cpu.data     0.003647                       # miss rate for demand accesses (Ratio)
system.cpu.dcache.demandMissRate::total      0.003647                       # miss rate for demand accesses (Ratio)
system.cpu.dcache.overallMissRate::cpu.data     0.003752                       # miss rate for overall accesses (Ratio)
system.cpu.dcache.overallMissRate::total     0.003752                       # miss rate for overall accesses (Ratio)
system.cpu.dcache.demandAvgMissLatency::cpu.data 28256.564238                       # average overall miss latency in ticks ((Tick/Count))
system.cpu.dcache.demandAvgMissLatency::total 28256.564238                       # average overall miss latency in ticks ((Tick/Count))
system.cpu.dcache.overallAvgMissLatency::cpu.data 27461.504967                       # average overall miss latency ((Tick/Count))
system.cpu.dcache.overallAvgMissLatency::total 27461.504967                       # average overall miss latency ((Tick/Count))
system.cpu.dcache.blockedCycles::no_mshrs        14661                       # number of cycles access was blocked (Cycle)
system.cpu.dcache.blockedCycles::no_targets            0                       # number of cycles access was blocked (Cycle)
system.cpu.dcache.blockedCauses::no_mshrs         1729                       # number of times access was blocked (Count)
system.cpu.dcache.blockedCauses::no_targets            0                       # number of times access was blocked (Count)
system.cpu.dcache.avgBlocked::no_mshrs       8.479468                       # average number of cycles each access was blocked ((Cycle/Count))
system.cpu.dcache.avgBlocked::no_targets          nan                       # average number of cycles each access was blocked ((Cycle/Count))
system.cpu.dcache.writebacks::writebacks        59490                       # number of writebacks (Count)
system.cpu.dcache.writebacks::total             59490                       # number of writebacks (Count)
system.cpu.dcache.demandMshrHits::cpu.data        42341                       # number of demand (read+write) MSHR hits (Count)
system.cpu.dcache.demandMshrHits::total         42341                       # number of demand (read+write) MSHR hits (Count)
system.cpu.dcache.overallMshrHits::cpu.data        42341                       # number of overall MSHR hits (Count)
system.cpu.dcache.overallMshrHits::total        42341                       # number of overall MSHR hits (Count)
system.cpu.dcache.demandMshrMisses::cpu.data        58620                       # number of demand (read+write) MSHR misses (Count)
system.cpu.dcache.demandMshrMisses::total        58620                       # number of demand (read+write) MSHR misses (Count)
system.cpu.dcache.overallMshrMisses::cpu.data        61538                       # number of overall MSHR misses (Count)
system.cpu.dcache.overallMshrMisses::total        61538                       # number of overall MSHR misses (Count)
system.cpu.dcache.demandMshrMissLatency::cpu.data   1683778993                       # number of demand (read+write) MSHR miss ticks (Tick)
system.cpu.dcache.demandMshrMissLatency::total   1683778993                       # number of demand (read+write) MSHR miss ticks (Tick)
system.cpu.dcache.overallMshrMissLatency::cpu.data   1780685993                       # number of overall MSHR miss ticks (Tick)
system.cpu.dcache.overallMshrMissLatency::total   1780685993                       # number of overall MSHR miss ticks (Tick)
system.cpu.dcache.demandMshrMissRate::cpu.data     0.002118                       # mshr miss ratio for demand accesses (Ratio)
system.cpu.dcache.demandMshrMissRate::total     0.002118                       # mshr miss ratio for demand accesses (Ratio)
system.cpu.dcache.overallMshrMissRate::cpu.data     0.002223                       # mshr miss ratio for overall accesses (Ratio)
system.cpu.dcache.overallMshrMissRate::total     0.002223                       # mshr miss ratio for overall accesses (Ratio)
system.cpu.dcache.demandAvgMshrMissLatency::cpu.data 28723.626629                       # average overall mshr miss latency ((Tick/Count))
system.cpu.dcache.demandAvgMshrMissLatency::total 28723.626629                       # average overall mshr miss latency ((Tick/Count))
system.cpu.dcache.overallAvgMshrMissLatency::cpu.data 28936.364409                       # average overall mshr miss latency ((Tick/Count))
system.cpu.dcache.overallAvgMshrMissLatency::total 28936.364409                       # average overall mshr miss latency ((Tick/Count))
system.cpu.dcache.replacements                  61026                       # number of replacements (Count)
system.cpu.dcache.LockedRMWReadReq.hits::cpu.data          110                       # number of LockedRMWReadReq hits (Count)
system.cpu.dcache.LockedRMWReadReq.hits::total          110                       # number of LockedRMWReadReq hits (Count)
system.cpu.dcache.LockedRMWReadReq.accesses::cpu.data          110                       # number of LockedRMWReadReq accesses(hits+misses) (Count)
system.cpu.dcache.LockedRMWReadReq.accesses::total          110                       # number of LockedRMWReadReq accesses(hits+misses) (Count)
system.cpu.dcache.LockedRMWReadReq.mshrMissLatency::cpu.data       744000                       # number of LockedRMWReadReq MSHR miss ticks (Tick)
system.cpu.dcache.LockedRMWReadReq.mshrMissLatency::total       744000                       # number of LockedRMWReadReq MSHR miss ticks (Tick)
system.cpu.dcache.LockedRMWReadReq.avgMshrMissLatency::cpu.data          inf                       # average LockedRMWReadReq mshr miss latency ((Tick/Count))
system.cpu.dcache.LockedRMWReadReq.avgMshrMissLatency::total          inf                       # average LockedRMWReadReq mshr miss latency ((Tick/Count))
system.cpu.dcache.LockedRMWWriteReq.hits::cpu.data          110                       # number of LockedRMWWriteReq hits (Count)
system.cpu.dcache.LockedRMWWriteReq.hits::total          110                       # number of LockedRMWWriteReq hits (Count)
system.cpu.dcache.LockedRMWWriteReq.accesses::cpu.data          110                       # number of LockedRMWWriteReq accesses(hits+misses) (Count)
system.cpu.dcache.LockedRMWWriteReq.accesses::total          110                       # number of LockedRMWWriteReq accesses(hits+misses) (Count)
system.cpu.dcache.ReadReq.hits::cpu.data     23984454                       # number of ReadReq hits (Count)
system.cpu.dcache.ReadReq.hits::total        23984454                       # number of ReadReq hits (Count)
system.cpu.dcache.ReadReq.misses::cpu.data        57880                       # number of ReadReq misses (Count)
system.cpu.dcache.ReadReq.misses::total         57880                       # number of ReadReq misses (Count)
system.cpu.dcache.ReadReq.missLatency::cpu.data   1515435000                       # number of ReadReq miss ticks (Tick)
system.cpu.dcache.ReadReq.missLatency::total   1515435000                       # number of ReadReq miss ticks (Tick)
system.cpu.dcache.ReadReq.accesses::cpu.data     24042334                       # number of ReadReq accesses(hits+misses) (Count)
system.cpu.dcache.ReadReq.accesses::total     24042334                       # number of ReadReq accesses(hits+misses) (Count)
system.cpu.dcache.ReadReq.missRate::cpu.data     0.002407                       # miss rate for ReadReq accesses (Ratio)
system.cpu.dcache.ReadReq.missRate::total     0.002407                       # miss rate for ReadReq accesses (Ratio)
system.cpu.dcache.ReadReq.avgMissLatency::cpu.data 26182.360055                       # average ReadReq miss latency ((Tick/Count))
system.cpu.dcache.ReadReq.avgMissLatency::total 26182.360055                       # average ReadReq miss latency ((Tick/Count))
system.cpu.dcache.ReadReq.mshrHits::cpu.data        42286                       # number of ReadReq MSHR hits (Count)
system.cpu.dcache.ReadReq.mshrHits::total        42286                       # number of ReadReq MSHR hits (Count)
system.cpu.dcache.ReadReq.mshrMisses::cpu.data        15594                       # number of ReadReq MSHR misses (Count)
system.cpu.dcache.ReadReq.mshrMisses::total        15594                       # number of ReadReq MSHR misses (Count)
system.cpu.dcache.ReadReq.mshrMissLatency::cpu.data    434005000                       # number of ReadReq MSHR miss ticks (Tick)
system.cpu.dcache.ReadReq.mshrMissLatency::total    434005000                       # number of ReadReq MSHR miss ticks (Tick)
system.cpu.dcache.ReadReq.mshrMissRate::cpu.data     0.000649                       # mshr miss rate for ReadReq accesses (Ratio)
system.cpu.dcache.ReadReq.mshrMissRate::total     0.000649                       # mshr miss rate for ReadReq accesses (Ratio)
system.cpu.dcache.ReadReq.avgMshrMissLatency::cpu.data 27831.537771                       # average ReadReq mshr miss latency ((Tick/Count))
system.cpu.dcache.ReadReq.avgMshrMissLatency::total 27831.537771                       # average ReadReq mshr miss latency ((Tick/Count))
system.cpu.dcache.SoftPFReq.hits::cpu.data           23                       # number of SoftPFReq hits (Count)
system.cpu.dcache.SoftPFReq.hits::total            23                       # number of SoftPFReq hits (Count)
system.cpu.dcache.SoftPFReq.misses::cpu.data         2923                       # number of SoftPFReq misses (Count)
system.cpu.dcache.SoftPFReq.misses::total         2923                       # number of SoftPFReq misses (Count)
system.cpu.dcache.SoftPFReq.accesses::cpu.data         2946                       # number of SoftPFReq accesses(hits+misses) (Count)
system.cpu.dcache.SoftPFReq.accesses::total         2946                       # number of SoftPFReq accesses(hits+misses) (Count)
system.cpu.dcache.SoftPFReq.missRate::cpu.data     0.992193                       # miss rate for SoftPFReq accesses (Ratio)
system.cpu.dcache.SoftPFReq.missRate::total     0.992193                       # miss rate for SoftPFReq accesses (Ratio)
system.cpu.dcache.SoftPFReq.mshrMisses::cpu.data         2918                       # number of SoftPFReq MSHR misses (Count)
system.cpu.dcache.SoftPFReq.mshrMisses::total         2918                       # number of SoftPFReq MSHR misses (Count)
system.cpu.dcache.SoftPFReq.mshrMissLatency::cpu.data     96907000                       # number of SoftPFReq MSHR miss ticks (Tick)
system.cpu.dcache.SoftPFReq.mshrMissLatency::total     96907000                       # number of SoftPFReq MSHR miss ticks (Tick)
system.cpu.dcache.SoftPFReq.mshrMissRate::cpu.data     0.990496                       # mshr miss rate for SoftPFReq accesses (Ratio)
system.cpu.dcache.SoftPFReq.mshrMissRate::total     0.990496                       # mshr miss rate for SoftPFReq accesses (Ratio)
system.cpu.dcache.SoftPFReq.avgMshrMissLatency::cpu.data 33210.075394                       # average SoftPFReq mshr miss latency ((Tick/Count))
system.cpu.dcache.SoftPFReq.avgMshrMissLatency::total 33210.075394                       # average SoftPFReq mshr miss latency ((Tick/Count))
system.cpu.dcache.WriteReq.hits::cpu.data      3596136                       # number of WriteReq hits (Count)
system.cpu.dcache.WriteReq.hits::total        3596136                       # number of WriteReq hits (Count)
system.cpu.dcache.WriteReq.misses::cpu.data        43081                       # number of WriteReq misses (Count)
system.cpu.dcache.WriteReq.misses::total        43081                       # number of WriteReq misses (Count)
system.cpu.dcache.WriteReq.missLatency::cpu.data   1337375982                       # number of WriteReq miss ticks (Tick)
system.cpu.dcache.WriteReq.missLatency::total   1337375982                       # number of WriteReq miss ticks (Tick)
system.cpu.dcache.WriteReq.accesses::cpu.data      3639217                       # number of WriteReq accesses(hits+misses) (Count)
system.cpu.dcache.WriteReq.accesses::total      3639217                       # number of WriteReq accesses(hits+misses) (Count)
system.cpu.dcache.WriteReq.missRate::cpu.data     0.011838                       # miss rate for WriteReq accesses (Ratio)
system.cpu.dcache.WriteReq.missRate::total     0.011838                       # miss rate for WriteReq accesses (Ratio)
system.cpu.dcache.WriteReq.avgMissLatency::cpu.data 31043.290128                       # average WriteReq miss latency ((Tick/Count))
system.cpu.dcache.WriteReq.avgMissLatency::total 31043.290128                       # average WriteReq miss latency ((Tick/Count))
system.cpu.dcache.WriteReq.mshrHits::cpu.data           55                       # number of WriteReq MSHR hits (Count)
system.cpu.dcache.WriteReq.mshrHits::total           55                       # number of WriteReq MSHR hits (Count)
system.cpu.dcache.WriteReq.mshrMisses::cpu.data        43026                       # number of WriteReq MSHR misses (Count)
system.cpu.dcache.WriteReq.mshrMisses::total        43026                       # number of WriteReq MSHR misses (Count)
system.cpu.dcache.WriteReq.mshrMissLatency::cpu.data   1249773993                       # number of WriteReq MSHR miss ticks (Tick)
system.cpu.dcache.WriteReq.mshrMissLatency::total   1249773993                       # number of WriteReq MSHR miss ticks (Tick)
system.cpu.dcache.WriteReq.mshrMissRate::cpu.data     0.011823                       # mshr miss rate for WriteReq accesses (Ratio)
system.cpu.dcache.WriteReq.mshrMissRate::total     0.011823                       # mshr miss rate for WriteReq accesses (Ratio)
system.cpu.dcache.WriteReq.avgMshrMissLatency::cpu.data 29046.948194                       # average WriteReq mshr miss latency ((Tick/Count))
system.cpu.dcache.WriteReq.avgMshrMissLatency::total 29046.948194                       # average WriteReq mshr miss latency ((Tick/Count))
system.cpu.dcache.power_state.pwrStateResidencyTicks::UNDEFINED  36477025000                       # Cumulative time (in ticks) in various power states (Tick)
system.cpu.dcache.tags.tagsInUse           510.353655                       # Average ticks per tags in use ((Tick/Count))
system.cpu.dcache.tags.totalRefs             27642371                       # Total number of references to valid blocks. (Count)
system.cpu.dcache.tags.sampledRefs              61538                       # Sample count of references to valid blocks. (Count)
system.cpu.dcache.tags.avgRefs             449.191898                       # Average number of references to valid blocks. ((Count/Count))
system.cpu.dcache.tags.warmupTick              222000                       # The tick when the warmup percentage was hit. (Tick)
system.cpu.dcache.tags.occupancies::cpu.data   510.353655                       # Average occupied blocks per tick, per requestor ((Count/Tick))
system.cpu.dcache.tags.avgOccs::cpu.data     0.996784                       # Average percentage of cache occupancy ((Ratio/Tick))
system.cpu.dcache.tags.avgOccs::total        0.996784                       # Average percentage of cache occupancy ((Ratio/Tick))
system.cpu.dcache.tags.occupanciesTaskId::1024          512                       # Occupied blocks per task id (Count)
system.cpu.dcache.tags.ageTaskId_1024::0           17                       # Occupied blocks per task id, per block age (Count)
system.cpu.dcache.tags.ageTaskId_1024::1           92                       # Occupied blocks per task id, per block age (Count)
system.cpu.dcache.tags.ageTaskId_1024::2          310                       # Occupied blocks per task id, per block age (Count)
system.cpu.dcache.tags.ageTaskId_1024::3           93                       # Occupied blocks per task id, per block age (Count)
system.cpu.dcache.tags.ratioOccsTaskId::1024            1                       # Ratio of occupied blocks and all blocks, per task id (Ratio)
system.cpu.dcache.tags.tagAccesses          110800406                       # Number of tag accesses (Count)
system.cpu.dcache.tags.dataAccesses         110800406                       # Number of data accesses (Count)
system.cpu.dcache.tags.power_state.pwrStateResidencyTicks::UNDEFINED  36477025000                       # Cumulative time (in ticks) in various power states (Tick)
system.cpu.decode.idleCycles                  4986151                       # Number of cycles decode is idle (Cycle)
system.cpu.decode.blockedCycles              16008583                       # Number of cycles decode is blocked (Cycle)
system.cpu.decode.runCycles                  11399367                       # Number of cycles decode is running (Cycle)
system.cpu.decode.unblockCycles               3481235                       # Number of cycles decode is unblocking (Cycle)
system.cpu.decode.squashCycles                 537423                       # Number of cycles decode is squashing (Cycle)
system.cpu.decode.branchResolved              3909613                       # Number of times decode resolved a branch (Count)
system.cpu.decode.branchMispred                 11382                       # Number of times decode detected a branch misprediction (Count)
system.cpu.decode.decodedInsts              105697076                       # Number of instructions handled by decode (Count)
system.cpu.decode.squashedInsts                 34038                       # Number of squashed instructions handled by decode (Count)
system.cpu.fetch.icacheStallCycles            8739165                       # Number of cycles fetch is stalled on an Icache miss (Cycle)
system.cpu.fetch.insts                       86468104                       # Number of instructions fetch has processed (Count)
system.cpu.fetch.branches                     5789250                       # Number of branches that fetch encountered (Count)
system.cpu.fetch.predictedBranches            4915476                       # Number of branches that fetch has predicted taken (Count)
system.cpu.fetch.cycles                      27124372                       # Number of cycles fetch has run and was not squashing or blocked (Cycle)
system.cpu.fetch.squashCycles                 1097382                       # Number of cycles fetch has spent squashing (Cycle)
system.cpu.fetch.miscStallCycles                   65                       # Number of cycles fetch has spent waiting on interrupts, or bad addresses, or out of MSHRs (Cycle)
system.cpu.fetch.pendingTrapStallCycles           420                       # Number of stall cycles due to pending traps (Cycle)
system.cpu.fetch.icacheWaitRetryStallCycles           46                       # Number of stall cycles due to full MSHR (Cycle)
system.cpu.fetch.cacheLines                   8379275                       # Number of cache lines fetched (Count)
system.cpu.fetch.icacheSquashes                 97539                       # Number of outstanding Icache misses that were squashed (Count)
system.cpu.fetch.nisnDist::samples           36412759                       # Number of instructions fetched each cycle (Total) (Count)
system.cpu.fetch.nisnDist::mean              3.250585                       # Number of instructions fetched each cycle (Total) (Count)
system.cpu.fetch.nisnDist::stdev             3.489188                       # Number of instructions fetched each cycle (Total) (Count)
system.cpu.fetch.nisnDist::underflows               0      0.00%      0.00% # Number of instructions fetched each cycle (Total) (Count)
system.cpu.fetch.nisnDist::0                 16122770     44.28%     44.28% # Number of instructions fetched each cycle (Total) (Count)
system.cpu.fetch.nisnDist::1                  1513453      4.16%     48.43% # Number of instructions fetched each cycle (Total) (Count)
system.cpu.fetch.nisnDist::2                  2184139      6.00%     54.43% # Number of instructions fetched each cycle (Total) (Count)
system.cpu.fetch.nisnDist::3                  2189735      6.01%     60.45% # Number of instructions fetched each cycle (Total) (Count)
system.cpu.fetch.nisnDist::4                   614052      1.69%     62.13% # Number of instructions fetched each cycle (Total) (Count)
system.cpu.fetch.nisnDist::5                   884418      2.43%     64.56% # Number of instructions fetched each cycle (Total) (Count)
system.cpu.fetch.nisnDist::6                  1645974      4.52%     69.08% # Number of instructions fetched each cycle (Total) (Count)
system.cpu.fetch.nisnDist::7                   908068      2.49%     71.58% # Number of instructions fetched each cycle (Total) (Count)
system.cpu.fetch.nisnDist::8                 10350150     28.42%    100.00% # Number of instructions fetched each cycle (Total) (Count)
system.cpu.fetch.nisnDist::overflows                0      0.00%    100.00% # Number of instructions fetched each cycle (Total) (Count)
system.cpu.fetch.nisnDist::min_value                0                       # Number of instructions fetched each cycle (Total) (Count)
system.cpu.fetch.nisnDist::max_value                8                       # Number of instructions fetched each cycle (Total) (Count)
system.cpu.fetch.nisnDist::total             36412759                       # Number of instructions fetched each cycle (Total) (Count)
system.cpu.fetch.branchRate                  0.158709                       # Number of branch fetches per cycle (Ratio)
system.cpu.fetch.rate                        2.370481                       # Number of inst fetches per cycle ((Count/Cycle))
system.cpu.icache.demandHits::cpu.inst        8376029                       # number of demand (read+write) hits (Count)
system.cpu.icache.demandHits::total           8376029                       # number of demand (read+write) hits (Count)
system.cpu.icache.overallHits::cpu.inst       8376029                       # number of overall hits (Count)
system.cpu.icache.overallHits::total          8376029                       # number of overall hits (Count)
system.cpu.icache.demandMisses::cpu.inst         3246                       # number of demand (read+write) misses (Count)
system.cpu.icache.demandMisses::total            3246                       # number of demand (read+write) misses (Count)
system.cpu.icache.overallMisses::cpu.inst         3246                       # number of overall misses (Count)
system.cpu.icache.overallMisses::total           3246                       # number of overall misses (Count)
system.cpu.icache.demandMissLatency::cpu.inst    234246998                       # number of demand (read+write) miss ticks (Tick)
system.cpu.icache.demandMissLatency::total    234246998                       # number of demand (read+write) miss ticks (Tick)
system.cpu.icache.overallMissLatency::cpu.inst    234246998                       # number of overall miss ticks (Tick)
system.cpu.icache.overallMissLatency::total    234246998                       # number of overall miss ticks (Tick)
system.cpu.icache.demandAccesses::cpu.inst      8379275                       # number of demand (read+write) accesses (Count)
system.cpu.icache.demandAccesses::total       8379275                       # number of demand (read+write) accesses (Count)
system.cpu.icache.overallAccesses::cpu.inst      8379275                       # number of overall (read+write) accesses (Count)
system.cpu.icache.overallAccesses::total      8379275                       # number of overall (read+write) accesses (Count)
system.cpu.icache.demandMissRate::cpu.inst     0.000387                       # miss rate for demand accesses (Ratio)
system.cpu.icache.demandMissRate::total      0.000387                       # miss rate for demand accesses (Ratio)
system.cpu.icache.overallMissRate::cpu.inst     0.000387                       # miss rate for overall accesses (Ratio)
system.cpu.icache.overallMissRate::total     0.000387                       # miss rate for overall accesses (Ratio)
system.cpu.icache.demandAvgMissLatency::cpu.inst 72164.817622                       # average overall miss latency in ticks ((Tick/Count))
system.cpu.icache.demandAvgMissLatency::total 72164.817622                       # average overall miss latency in ticks ((Tick/Count))
system.cpu.icache.overallAvgMissLatency::cpu.inst 72164.817622                       # average overall miss latency ((Tick/Count))
system.cpu.icache.overallAvgMissLatency::total 72164.817622                       # average overall miss latency ((Tick/Count))
system.cpu.icache.blockedCycles::no_mshrs          296                       # number of cycles access was blocked (Cycle)
system.cpu.icache.blockedCycles::no_targets            0                       # number of cycles access was blocked (Cycle)
system.cpu.icache.blockedCauses::no_mshrs           10                       # number of times access was blocked (Count)
system.cpu.icache.blockedCauses::no_targets            0                       # number of times access was blocked (Count)
system.cpu.icache.avgBlocked::no_mshrs      29.600000                       # average number of cycles each access was blocked ((Cycle/Count))
system.cpu.icache.avgBlocked::no_targets          nan                       # average number of cycles each access was blocked ((Cycle/Count))
system.cpu.icache.demandMshrHits::cpu.inst          689                       # number of demand (read+write) MSHR hits (Count)
system.cpu.icache.demandMshrHits::total           689                       # number of demand (read+write) MSHR hits (Count)
system.cpu.icache.overallMshrHits::cpu.inst          689                       # number of overall MSHR hits (Count)
system.cpu.icache.overallMshrHits::total          689                       # number of overall MSHR hits (Count)
system.cpu.icache.demandMshrMisses::cpu.inst         2557                       # number of demand (read+write) MSHR misses (Count)
system.cpu.icache.demandMshrMisses::total         2557                       # number of demand (read+write) MSHR misses (Count)
system.cpu.icache.overallMshrMisses::cpu.inst         2557                       # number of overall MSHR misses (Count)
system.cpu.icache.overallMshrMisses::total         2557                       # number of overall MSHR misses (Count)
system.cpu.icache.demandMshrMissLatency::cpu.inst    184461998                       # number of demand (read+write) MSHR miss ticks (Tick)
system.cpu.icache.demandMshrMissLatency::total    184461998                       # number of demand (read+write) MSHR miss ticks (Tick)
system.cpu.icache.overallMshrMissLatency::cpu.inst    184461998                       # number of overall MSHR miss ticks (Tick)
system.cpu.icache.overallMshrMissLatency::total    184461998                       # number of overall MSHR miss ticks (Tick)
system.cpu.icache.demandMshrMissRate::cpu.inst     0.000305                       # mshr miss ratio for demand accesses (Ratio)
system.cpu.icache.demandMshrMissRate::total     0.000305                       # mshr miss ratio for demand accesses (Ratio)
system.cpu.icache.overallMshrMissRate::cpu.inst     0.000305                       # mshr miss ratio for overall accesses (Ratio)
system.cpu.icache.overallMshrMissRate::total     0.000305                       # mshr miss ratio for overall accesses (Ratio)
system.cpu.icache.demandAvgMshrMissLatency::cpu.inst 72140.007039                       # average overall mshr miss latency ((Tick/Count))
system.cpu.icache.demandAvgMshrMissLatency::total 72140.007039                       # average overall mshr miss latency ((Tick/Count))
system.cpu.icache.overallAvgMshrMissLatency::cpu.inst 72140.007039                       # average overall mshr miss latency ((Tick/Count))
system.cpu.icache.overallAvgMshrMissLatency::total 72140.007039                       # average overall mshr miss latency ((Tick/Count))
system.cpu.icache.replacements                   2045                       # number of replacements (Count)
system.cpu.icache.ReadReq.hits::cpu.inst      8376029                       # number of ReadReq hits (Count)
system.cpu.icache.ReadReq.hits::total         8376029                       # number of ReadReq hits (Count)
system.cpu.icache.ReadReq.misses::cpu.inst         3246                       # number of ReadReq misses (Count)
system.cpu.icache.ReadReq.misses::total          3246                       # number of ReadReq misses (Count)
system.cpu.icache.ReadReq.missLatency::cpu.inst    234246998                       # number of ReadReq miss ticks (Tick)
system.cpu.icache.ReadReq.missLatency::total    234246998                       # number of ReadReq miss ticks (Tick)
system.cpu.icache.ReadReq.accesses::cpu.inst      8379275                       # number of ReadReq accesses(hits+misses) (Count)
system.cpu.icache.ReadReq.accesses::total      8379275                       # number of ReadReq accesses(hits+misses) (Count)
system.cpu.icache.ReadReq.missRate::cpu.inst     0.000387                       # miss rate for ReadReq accesses (Ratio)
system.cpu.icache.ReadReq.missRate::total     0.000387                       # miss rate for ReadReq accesses (Ratio)
system.cpu.icache.ReadReq.avgMissLatency::cpu.inst 72164.817622                       # average ReadReq miss latency ((Tick/Count))
system.cpu.icache.ReadReq.avgMissLatency::total 72164.817622                       # average ReadReq miss latency ((Tick/Count))
system.cpu.icache.ReadReq.mshrHits::cpu.inst          689                       # number of ReadReq MSHR hits (Count)
system.cpu.icache.ReadReq.mshrHits::total          689                       # number of ReadReq MSHR hits (Count)
system.cpu.icache.ReadReq.mshrMisses::cpu.inst         2557                       # number of ReadReq MSHR misses (Count)
system.cpu.icache.ReadReq.mshrMisses::total         2557                       # number of ReadReq MSHR misses (Count)
system.cpu.icache.ReadReq.mshrMissLatency::cpu.inst    184461998                       # number of ReadReq MSHR miss ticks (Tick)
system.cpu.icache.ReadReq.mshrMissLatency::total    184461998                       # number of ReadReq MSHR miss ticks (Tick)
system.cpu.icache.ReadReq.mshrMissRate::cpu.inst     0.000305                       # mshr miss rate for ReadReq accesses (Ratio)
system.cpu.icache.ReadReq.mshrMissRate::total     0.000305                       # mshr miss rate for ReadReq accesses (Ratio)
system.cpu.icache.ReadReq.avgMshrMissLatency::cpu.inst 72140.007039                       # average ReadReq mshr miss latency ((Tick/Count))
system.cpu.icache.ReadReq.avgMshrMissLatency::total 72140.007039                       # average ReadReq mshr miss latency ((Tick/Count))
system.cpu.icache.power_state.pwrStateResidencyTicks::UNDEFINED  36477025000                       # Cumulative time (in ticks) in various power states (Tick)
system.cpu.icache.tags.tagsInUse           511.308442                       # Average ticks per tags in use ((Tick/Count))
system.cpu.icache.tags.totalRefs              8378586                       # Total number of references to valid blocks. (Count)
system.cpu.icache.tags.sampledRefs               2557                       # Sample count of references to valid blocks. (Count)
system.cpu.icache.tags.avgRefs            3276.725068                       # Average number of references to valid blocks. ((Count/Count))
system.cpu.icache.tags.warmupTick              107000                       # The tick when the warmup percentage was hit. (Tick)
system.cpu.icache.tags.occupancies::cpu.inst   511.308442                       # Average occupied blocks per tick, per requestor ((Count/Tick))
system.cpu.icache.tags.avgOccs::cpu.inst     0.998649                       # Average percentage of cache occupancy ((Ratio/Tick))
system.cpu.icache.tags.avgOccs::total        0.998649                       # Average percentage of cache occupancy ((Ratio/Tick))
system.cpu.icache.tags.occupanciesTaskId::1024          512                       # Occupied blocks per task id (Count)
system.cpu.icache.tags.ageTaskId_1024::2           14                       # Occupied blocks per task id, per block age (Count)
system.cpu.icache.tags.ageTaskId_1024::3           10                       # Occupied blocks per task id, per block age (Count)
system.cpu.icache.tags.ageTaskId_1024::4          488                       # Occupied blocks per task id, per block age (Count)
system.cpu.icache.tags.ratioOccsTaskId::1024            1                       # Ratio of occupied blocks and all blocks, per task id (Ratio)
system.cpu.icache.tags.tagAccesses           16761107                       # Number of tag accesses (Count)
system.cpu.icache.tags.dataAccesses          16761107                       # Number of data accesses (Count)
system.cpu.icache.tags.power_state.pwrStateResidencyTicks::UNDEFINED  36477025000                       # Cumulative time (in ticks) in various power states (Tick)
system.cpu.iew.idleCycles                           0                       # Number of cycles IEW is idle (Cycle)
system.cpu.iew.squashCycles                    537423                       # Number of cycles IEW is squashing (Cycle)
system.cpu.iew.blockCycles                    4198752                       # Number of cycles IEW is blocking (Cycle)
system.cpu.iew.unblockCycles                   128413                       # Number of cycles IEW is unblocking (Cycle)
system.cpu.iew.dispatchedInsts              100336770                       # Number of instructions dispatched to IQ (Count)
system.cpu.iew.dispSquashedInsts                32264                       # Number of squashed instructions skipped by dispatch (Count)
system.cpu.iew.dispLoadInsts                 33368379                       # Number of dispatched load instructions (Count)
system.cpu.iew.dispStoreInsts                 5681796                       # Number of dispatched store instructions (Count)
system.cpu.iew.dispNonSpecInsts                  1060                       # Number of dispatched non-speculative instructions (Count)
system.cpu.iew.iqFullEvents                       840                       # Number of times the IQ has become full, causing a stall (Count)
system.cpu.iew.lsqFullEvents                   127747                       # Number of times the LSQ has become full, causing a stall (Count)
system.cpu.iew.memOrderViolationEvents           5651                       # Number of memory order violations (Count)
system.cpu.iew.predictedTakenIncorrect         381850                       # Number of branches that were predicted taken incorrectly (Count)
system.cpu.iew.predictedNotTakenIncorrect       159365                       # Number of branches that were predicted not taken incorrectly (Count)
system.cpu.iew.branchMispredicts               541215                       # Number of branch mispredicts detected at execute (Count)
system.cpu.iew.instsToCommit                 84360053                       # Cumulative count of insts sent to commit (Count)
system.cpu.iew.writebackCount                84020371                       # Cumulative count of insts written-back (Count)
system.cpu.iew.producerInst                  73124255                       # Number of instructions producing a value (Count)
system.cpu.iew.consumerInst                 100241676                       # Number of instructions consuming a value (Count)
system.cpu.iew.wbRate                        2.303378                       # Insts written-back per cycle ((Count/Cycle))
system.cpu.iew.wbFanout                      0.729480                       # Average fanout of values written-back ((Count/Count))
system.cpu.interrupts.clk_domain.clock          16000                       # Clock period in ticks (Tick)
system.cpu.lsq0.forwLoads                     5406833                       # Number of loads that had data forwarded from stores (Count)
system.cpu.lsq0.squashedLoads                11506027                       # Number of loads squashed (Count)
system.cpu.lsq0.ignoredResponses                14206                       # Number of memory responses ignored because the instruction is squashed (Count)
system.cpu.lsq0.memOrderViolation                5651                       # Number of memory ordering violations (Count)
system.cpu.lsq0.squashedStores                2042530                       # Number of stores squashed (Count)
system.cpu.lsq0.rescheduledLoads                 5451                       # Number of loads that were rescheduled (Count)
system.cpu.lsq0.blockedByCache                   1284                       # Number of times an access to memory failed due to the cache being blocked (Count)
system.cpu.lsq0.loadToUse::samples           21859383                       # Distribution of cycle latency between the first time a load is issued and its completion (Unspecified)
system.cpu.lsq0.loadToUse::mean              3.179630                       # Distribution of cycle latency between the first time a load is issued and its completion (Unspecified)
system.cpu.lsq0.loadToUse::stdev             1.561628                       # Distribution of cycle latency between the first time a load is issued and its completion (Unspecified)
system.cpu.lsq0.loadToUse::0-9               21811228     99.78%     99.78% # Distribution of cycle latency between the first time a load is issued and its completion (Unspecified)
system.cpu.lsq0.loadToUse::10-19                 9976      0.05%     99.83% # Distribution of cycle latency between the first time a load is issued and its completion (Unspecified)
system.cpu.lsq0.loadToUse::20-29                35241      0.16%     99.99% # Distribution of cycle latency between the first time a load is issued and its completion (Unspecified)
system.cpu.lsq0.loadToUse::30-39                  882      0.00%     99.99% # Distribution of cycle latency between the first time a load is issued and its completion (Unspecified)
system.cpu.lsq0.loadToUse::40-49                   73      0.00%     99.99% # Distribution of cycle latency between the first time a load is issued and its completion (Unspecified)
system.cpu.lsq0.loadToUse::50-59                   20      0.00%     99.99% # Distribution of cycle latency between the first time a load is issued and its completion (Unspecified)
system.cpu.lsq0.loadToUse::60-69                   10      0.00%     99.99% # Distribution of cycle latency between the first time a load is issued and its completion (Unspecified)
system.cpu.lsq0.loadToUse::70-79                   17      0.00%     99.99% # Distribution of cycle latency between the first time a load is issued and its completion (Unspecified)
system.cpu.lsq0.loadToUse::80-89                  290      0.00%     99.99% # Distribution of cycle latency between the first time a load is issued and its completion (Unspecified)
system.cpu.lsq0.loadToUse::90-99                  843      0.00%    100.00% # Distribution of cycle latency between the first time a load is issued and its completion (Unspecified)
system.cpu.lsq0.loadToUse::100-109                372      0.00%    100.00% # Distribution of cycle latency between the first time a load is issued and its completion (Unspecified)
system.cpu.lsq0.loadToUse::110-119                253      0.00%    100.00% # Distribution of cycle latency between the first time a load is issued and its completion (Unspecified)
[...]
system.mem_ctrl.requestorReadAvgLat::cpu.inst     27817.50                       # Per-requestor read average memory access latency ((Tick/Count))
system.mem_ctrl.requestorReadAvgLat::cpu.data     26441.98                       # Per-requestor read average memory access latency ((Tick/Count))
system.mem_ctrl.dram.bytesRead::cpu.inst       100736                       # Number of bytes read from this memory (Byte)
system.mem_ctrl.dram.bytesRead::cpu.data       242944                       # Number of bytes read from this memory (Byte)
system.mem_ctrl.dram.bytesRead::total          343680                       # Number of bytes read from this memory (Byte)
system.mem_ctrl.dram.bytesInstRead::cpu.inst       100736                       # Number of instructions bytes read from this memory (Byte)
system.mem_ctrl.dram.bytesInstRead::total       100736                       # Number of instructions bytes read from this memory (Byte)
system.mem_ctrl.dram.numReads::cpu.inst          1574                       # Number of read requests responded to by this memory (Count)
system.mem_ctrl.dram.numReads::cpu.data          3796                       # Number of read requests responded to by this memory (Count)
system.mem_ctrl.dram.numReads::total             5370                       # Number of read requests responded to by this memory (Count)
system.mem_ctrl.dram.bwRead::cpu.inst         2761629                       # Total read bandwidth from this memory ((Byte/Second))
system.mem_ctrl.dram.bwRead::cpu.data         6660192                       # Total read bandwidth from this memory ((Byte/Second))
system.mem_ctrl.dram.bwRead::total            9421821                       # Total read bandwidth from this memory ((Byte/Second))
system.mem_ctrl.dram.bwInstRead::cpu.inst      2761629                       # Instruction read bandwidth from this memory ((Byte/Second))
system.mem_ctrl.dram.bwInstRead::total        2761629                       # Instruction read bandwidth from this memory ((Byte/Second))
system.mem_ctrl.dram.bwTotal::cpu.inst        2761629                       # Total bandwidth to/from this memory ((Byte/Second))
system.mem_ctrl.dram.bwTotal::cpu.data        6660192                       # Total bandwidth to/from this memory ((Byte/Second))
system.mem_ctrl.dram.bwTotal::total           9421821                       # Total bandwidth to/from this memory ((Byte/Second))
system.mem_ctrl.dram.readBursts                  5370                       # Number of DRAM read bursts (Count)
system.mem_ctrl.dram.writeBursts                    0                       # Number of DRAM write bursts (Count)
system.mem_ctrl.dram.perBankRdBursts::0           228                       # Per bank write bursts (Count)
system.mem_ctrl.dram.perBankRdBursts::1           230                       # Per bank write bursts (Count)
system.mem_ctrl.dram.perBankRdBursts::2           329                       # Per bank write bursts (Count)
system.mem_ctrl.dram.perBankRdBursts::3           196                       # Per bank write bursts (Count)
system.mem_ctrl.dram.perBankRdBursts::4           372                       # Per bank write bursts (Count)
system.mem_ctrl.dram.perBankRdBursts::5           298                       # Per bank write bursts (Count)
system.mem_ctrl.dram.perBankRdBursts::6           224                       # Per bank write bursts (Count)
system.mem_ctrl.dram.perBankRdBursts::7           292                       # Per bank write bursts (Count)
system.mem_ctrl.dram.perBankRdBursts::8           470                       # Per bank write bursts (Count)
system.mem_ctrl.dram.perBankRdBursts::9           410                       # Per bank write bursts (Count)
system.mem_ctrl.dram.perBankRdBursts::10          453                       # Per bank write bursts (Count)
system.mem_ctrl.dram.perBankRdBursts::11          503                       # Per bank write bursts (Count)
system.mem_ctrl.dram.perBankRdBursts::12          384                       # Per bank write bursts (Count)
system.mem_ctrl.dram.perBankRdBursts::13          333                       # Per bank write bursts (Count)
system.mem_ctrl.dram.perBankRdBursts::14          309                       # Per bank write bursts (Count)
system.mem_ctrl.dram.perBankRdBursts::15          339                       # Per bank write bursts (Count)
system.mem_ctrl.dram.perBankWrBursts::0             0                       # Per bank write bursts (Count)
system.mem_ctrl.dram.perBankWrBursts::1             0                       # Per bank write bursts (Count)
system.mem_ctrl.dram.perBankWrBursts::2             0                       # Per bank write bursts (Count)
system.mem_ctrl.dram.perBankWrBursts::3             0                       # Per bank write bursts (Count)
system.mem_ctrl.dram.perBankWrBursts::4             0                       # Per bank write bursts (Count)
system.mem_ctrl.dram.perBankWrBursts::5             0                       # Per bank write bursts (Count)
system.mem_ctrl.dram.perBankWrBursts::6             0                       # Per bank write bursts (Count)
system.mem_ctrl.dram.perBankWrBursts::7             0                       # Per bank write bursts (Count)
system.mem_ctrl.dram.perBankWrBursts::8             0                       # Per bank write bursts (Count)
system.mem_ctrl.dram.perBankWrBursts::9             0                       # Per bank write bursts (Count)
system.mem_ctrl.dram.perBankWrBursts::10            0                       # Per bank write bursts (Count)
system.mem_ctrl.dram.perBankWrBursts::11            0                       # Per bank write bursts (Count)
system.mem_ctrl.dram.perBankWrBursts::12            0                       # Per bank write bursts (Count)
system.mem_ctrl.dram.perBankWrBursts::13            0                       # Per bank write bursts (Count)
system.mem_ctrl.dram.perBankWrBursts::14            0                       # Per bank write bursts (Count)
system.mem_ctrl.dram.perBankWrBursts::15            0                       # Per bank write bursts (Count)
system.mem_ctrl.dram.totQLat                 43471000                       # Total ticks spent queuing (Tick)
system.mem_ctrl.dram.totBusLat               26850000                       # Total ticks spent in databus transfers (Tick)
system.mem_ctrl.dram.totMemAccLat           144158500                       # Total ticks spent from burst creation until serviced by the DRAM (Tick)
system.mem_ctrl.dram.avgQLat                  8095.16                       # Average queueing delay per DRAM burst ((Tick/Count))
system.mem_ctrl.dram.avgBusLat                5000.00                       # Average bus latency per DRAM burst ((Tick/Count))
system.mem_ctrl.dram.avgMemAccLat            26845.16                       # Average memory access latency per DRAM burst ((Tick/Count))
system.mem_ctrl.dram.readRowHits                 4129                       # Number of row buffer hits during reads (Count)
system.mem_ctrl.dram.writeRowHits                   0                       # Number of row buffer hits during writes (Count)
system.mem_ctrl.dram.readRowHitRate             76.89                       # Row buffer hit rate for reads (Ratio)
system.mem_ctrl.dram.writeRowHitRate              nan                       # Row buffer hit rate for writes (Ratio)
system.mem_ctrl.dram.bytesPerActivate::samples         1241                       # Bytes accessed per row activation (Byte)
system.mem_ctrl.dram.bytesPerActivate::mean   276.937953                       # Bytes accessed per row activation (Byte)
system.mem_ctrl.dram.bytesPerActivate::gmean   182.519455                       # Bytes accessed per row activation (Byte)
system.mem_ctrl.dram.bytesPerActivate::stdev   280.299489                       # Bytes accessed per row activation (Byte)
system.mem_ctrl.dram.bytesPerActivate::0-127          373     30.06%     30.06% # Bytes accessed per row activation (Byte)
system.mem_ctrl.dram.bytesPerActivate::128-255          410     33.04%     63.09% # Bytes accessed per row activation (Byte)
system.mem_ctrl.dram.bytesPerActivate::256-383          141     11.36%     74.46% # Bytes accessed per row activation (Byte)
system.mem_ctrl.dram.bytesPerActivate::384-511          136     10.96%     85.41% # Bytes accessed per row activation (Byte)
system.mem_ctrl.dram.bytesPerActivate::512-639           31      2.50%     87.91% # Bytes accessed per row activation (Byte)
system.mem_ctrl.dram.bytesPerActivate::640-767           17      1.37%     89.28% # Bytes accessed per row activation (Byte)
system.mem_ctrl.dram.bytesPerActivate::768-895           19      1.53%     90.81% # Bytes accessed per row activation (Byte)
system.mem_ctrl.dram.bytesPerActivate::896-1023            9      0.73%     91.54% # Bytes accessed per row activation (Byte)
system.mem_ctrl.dram.bytesPerActivate::1024-1151          105      8.46%    100.00% # Bytes accessed per row activation (Byte)
system.mem_ctrl.dram.bytesPerActivate::total         1241                       # Bytes accessed per row activation (Byte)
system.mem_ctrl.dram.bytesRead                 343680                       # Total bytes read (Byte)
system.mem_ctrl.dram.bytesWritten                   0                       # Total bytes written (Byte)
system.mem_ctrl.dram.avgRdBW                 9.421821                       # Average DRAM read bandwidth in MiBytes/s ((Byte/Second))
system.mem_ctrl.dram.avgWrBW                        0                       # Average DRAM write bandwidth in MiBytes/s ((Byte/Second))
system.mem_ctrl.dram.peakBW                  12800.00                       # Theoretical peak bandwidth in MiByte/s ((Byte/Second))
system.mem_ctrl.dram.busUtil                     0.07                       # Data bus utilization in percentage (Ratio)
system.mem_ctrl.dram.busUtilRead                 0.07                       # Data bus utilization in percentage for reads (Ratio)
system.mem_ctrl.dram.busUtilWrite                0.00                       # Data bus utilization in percentage for writes (Ratio)
system.mem_ctrl.dram.pageHitRate                76.89                       # Row buffer hit rate, read and write combined (Ratio)
system.mem_ctrl.dram.power_state.pwrStateResidencyTicks::UNDEFINED  36477025000                       # Cumulative time (in ticks) in various power states (Tick)
system.mem_ctrl.dram.rank0.actEnergy          4226880                       # Energy for activate commands per rank (pJ) (Joule)
system.mem_ctrl.dram.rank0.preEnergy          2246640                       # Energy for precharge commands per rank (pJ) (Joule)
system.mem_ctrl.dram.rank0.readEnergy        15486660                       # Energy for read commands per rank (pJ) (Joule)
system.mem_ctrl.dram.rank0.writeEnergy              0                       # Energy for write commands per rank (pJ) (Joule)
system.mem_ctrl.dram.rank0.refreshEnergy 2878973760.000000                       # Energy for refresh commands per rank (pJ) (Joule)
system.mem_ctrl.dram.rank0.actBackEnergy   1075027410                       # Energy for active background per rank (pJ) (Joule)
system.mem_ctrl.dram.rank0.preBackEnergy  13101891360                       # Energy for precharge background per rank (pJ) (Joule)
system.mem_ctrl.dram.rank0.actPowerDownEnergy            0                       # Energy for active power-down per rank (pJ) (Joule)
system.mem_ctrl.dram.rank0.prePowerDownEnergy            0                       # Energy for precharge power-down per rank (pJ) (Joule)
system.mem_ctrl.dram.rank0.selfRefreshEnergy            0                       # Energy for self refresh per rank (pJ) (Joule)
system.mem_ctrl.dram.rank0.totalEnergy    17077852710                       # Total energy per rank (pJ) (Joule)
system.mem_ctrl.dram.rank0.averagePower    468.181073                       # Core power per rank (mW) (Watt)
system.mem_ctrl.dram.rank0.totalIdleTime            0                       # Total Idle time Per DRAM Rank (Tick)
system.mem_ctrl.dram.rank0.pwrStateTime::IDLE  34052248750                       # Time in different power states (Tick)
system.mem_ctrl.dram.rank0.pwrStateTime::REF   1217840000                       # Time in different power states (Tick)
system.mem_ctrl.dram.rank0.pwrStateTime::SREF            0                       # Time in different power states (Tick)
system.mem_ctrl.dram.rank0.pwrStateTime::PRE_PDN            0                       # Time in different power states (Tick)
system.mem_ctrl.dram.rank0.pwrStateTime::ACT   1206936250                       # Time in different power states (Tick)
system.mem_ctrl.dram.rank0.pwrStateTime::ACT_PDN            0                       # Time in different power states (Tick)
system.mem_ctrl.dram.rank1.actEnergy          4633860                       # Energy for activate commands per rank (pJ) (Joule)
system.mem_ctrl.dram.rank1.preEnergy          2462955                       # Energy for precharge commands per rank (pJ) (Joule)
system.mem_ctrl.dram.rank1.readEnergy        22855140                       # Energy for read commands per rank (pJ) (Joule)
system.mem_ctrl.dram.rank1.writeEnergy              0                       # Energy for write commands per rank (pJ) (Joule)
system.mem_ctrl.dram.rank1.refreshEnergy 2878973760.000000                       # Energy for refresh commands per rank (pJ) (Joule)
system.mem_ctrl.dram.rank1.actBackEnergy   1165778820                       # Energy for active background per rank (pJ) (Joule)
system.mem_ctrl.dram.rank1.preBackEnergy  13025469120                       # Energy for precharge background per rank (pJ) (Joule)
system.mem_ctrl.dram.rank1.actPowerDownEnergy            0                       # Energy for active power-down per rank (pJ) (Joule)
system.mem_ctrl.dram.rank1.prePowerDownEnergy            0                       # Energy for precharge power-down per rank (pJ) (Joule)
system.mem_ctrl.dram.rank1.selfRefreshEnergy            0                       # Energy for self refresh per rank (pJ) (Joule)
system.mem_ctrl.dram.rank1.totalEnergy    17100173655                       # Total energy per rank (pJ) (Joule)
system.mem_ctrl.dram.rank1.averagePower    468.792991                       # Core power per rank (mW) (Watt)
system.mem_ctrl.dram.rank1.totalIdleTime            0                       # Total Idle time Per DRAM Rank (Tick)
system.mem_ctrl.dram.rank1.pwrStateTime::IDLE  33852225750                       # Time in different power states (Tick)
system.mem_ctrl.dram.rank1.pwrStateTime::REF   1217840000                       # Time in different power states (Tick)
system.mem_ctrl.dram.rank1.pwrStateTime::SREF            0                       # Time in different power states (Tick)
system.mem_ctrl.dram.rank1.pwrStateTime::PRE_PDN            0                       # Time in different power states (Tick)
system.mem_ctrl.dram.rank1.pwrStateTime::ACT   1406959250                       # Time in different power states (Tick)
system.mem_ctrl.dram.rank1.pwrStateTime::ACT_PDN            0                       # Time in different power states (Tick)
system.mem_ctrl.power_state.pwrStateResidencyTicks::UNDEFINED  36477025000                       # Cumulative time (in ticks) in various power states (Tick)
system.membus.transDist::ReadResp                2557                       # Transaction distribution (Count)
system.membus.transDist::ReadExReq               2813                       # Transaction distribution (Count)
system.membus.transDist::ReadExResp              2813                       # Transaction distribution (Count)
system.membus.transDist::ReadSharedReq           2557                       # Transaction distribution (Count)
system.membus.pktCount_system.l2cache.mem_side_port::system.mem_ctrl.port        10740                       # Packet count per connected requestor and responder (Count)
system.membus.pktCount_system.l2cache.mem_side_port::total        10740                       # Packet count per connected requestor and responder (Count)
system.membus.pktCount::total                   10740                       # Packet count per connected requestor and responder (Count)
system.membus.pktSize_system.l2cache.mem_side_port::system.mem_ctrl.port       343680                       # Cumulative packet size per connected requestor and responder (Byte)
system.membus.pktSize_system.l2cache.mem_side_port::total       343680                       # Cumulative packet size per connected requestor and responder (Byte)
system.membus.pktSize::total                   343680                       # Cumulative packet size per connected requestor and responder (Byte)
system.membus.snoops                                0                       # Total snoops (Count)
system.membus.snoopTraffic                          0                       # Total snoop traffic (Byte)
system.membus.snoopFanout::samples               5370                       # Request fanout histogram (Count)
system.membus.snoopFanout::mean                     0                       # Request fanout histogram (Count)
system.membus.snoopFanout::stdev                    0                       # Request fanout histogram (Count)
system.membus.snoopFanout::underflows               0      0.00%      0.00% # Request fanout histogram (Count)
system.membus.snoopFanout::0                     5370    100.00%    100.00% # Request fanout histogram (Count)
system.membus.snoopFanout::1                        0      0.00%    100.00% # Request fanout histogram (Count)
system.membus.snoopFanout::overflows                0      0.00%    100.00% # Request fanout histogram (Count)
system.membus.snoopFanout::min_value                0                       # Request fanout histogram (Count)
system.membus.snoopFanout::max_value                0                       # Request fanout histogram (Count)
system.membus.snoopFanout::total                 5370                       # Request fanout histogram (Count)
system.membus.power_state.pwrStateResidencyTicks::UNDEFINED  36477025000                       # Cumulative time (in ticks) in various power states (Tick)
system.membus.reqLayer2.occupancy             5370000                       # Layer occupancy (ticks) (Tick)
system.membus.reqLayer2.utilization               0.0                       # Layer utilization (Ratio)
system.membus.respLayer0.occupancy           28439500                       # Layer occupancy (ticks) (Tick)
system.membus.respLayer0.utilization              0.0                       # Layer utilization (Ratio)
system.membus.snoop_filter.totRequests           5370                       # Total number of requests made to the snoop filter. (Count)
system.membus.snoop_filter.hitSingleRequests            0                       # Number of requests hitting in the snoop filter with a single holder of the requested data. (Count)
system.membus.snoop_filter.hitMultiRequests            0                       # Number of requests hitting in the snoop filter with multiple (>1) holders of the requested data. (Count)
system.membus.snoop_filter.totSnoops                0                       # Total number of snoops made to the snoop filter. (Count)
system.membus.snoop_filter.hitSingleSnoops            0                       # Number of snoops hitting in the snoop filter with a single holder of the requested data. (Count)
system.membus.snoop_filter.hitMultiSnoops            0                       # Number of snoops hitting in the snoop filter with multiple (>1) holders of the requested data. (Count)
system.workload.inst.arm                            0                       # number of arm instructions executed (Count)
system.workload.inst.quiesce                        0                       # number of quiesce instructions executed (Count)

---------- End Simulation Statistics   ----------
