
---------- Begin Simulation Statistics ----------
simSeconds                                   0.777749                       # Number of seconds simulated (Second)
simTicks                                 777748878000                       # Number of ticks simulated (Tick)
finalTick                                777748878000                       # Number of ticks from beginning of simulation (restored from checkpoints and never reset) (Tick)
simFreq                                  1000000000000                       # The number of ticks per simulated second ((Tick/Second))
hostSeconds                                    815.07                       # Real time elapsed on the host (Second)
hostTickRate                                954205536                       # The number of ticks simulated per host second (ticks/s) ((Tick/Second))
hostMemory                                    8536912                       # Number of bytes of host memory used (Byte)
simInsts                                     50000000                       # Number of instructions simulated (Count)
simOps                                       95981348                       # Number of ops (including micro ops) simulated (Count)
hostInstRate                                    61344                       # Simulator instruction rate (inst/s) ((Count/Second))
hostOpRate                                     117758                       # Simulator op (including micro ops) rate (op/s) ((Count/Second))
system.clk_domain.clock                          1000                       # Clock period in ticks (Tick)
system.clk_domain.voltage_domain.voltage            1                       # Voltage in Volts (Volt)
system.cpu.numCycles                        777748879                       # Number of cpu cycles simulated (Cycle)
system.cpu.numWorkItemsStarted                      0                       # Number of work items this cpu started (Count)
system.cpu.numWorkItemsCompleted                    0                       # Number of work items this cpu completed (Count)
system.cpu.instsAdded                        98585876                       # Number of instructions added to the IQ (excludes non-spec) (Count)
system.cpu.nonSpecInstsAdded                      768                       # Number of non-speculative instructions added to the IQ (Count)
system.cpu.instsIssued                       98539153                       # Number of instructions issued (Count)
system.cpu.squashedInstsIssued                    371                       # Number of squashed instructions issued (Count)
system.cpu.squashedInstsExamined              2605294                       # Number of squashed instructions iterated over during squash; mainly for profiling (Count)
system.cpu.squashedOperandsExamined           5535141                       # Number of squashed operands that are examined and possibly removed from graph (Count)
system.cpu.squashedNonSpecRemoved                 720                       # Number of squashed non-spec instructions that were removed (Count)
system.cpu.numIssuedDist::samples           777702688                       # Number of insts issued each cycle (Count)
system.cpu.numIssuedDist::mean               0.126705                       # Number of insts issued each cycle (Count)
system.cpu.numIssuedDist::stdev              0.485351                       # Number of insts issued each cycle (Count)
system.cpu.numIssuedDist::underflows                0      0.00%      0.00% # Number of insts issued each cycle (Count)
system.cpu.numIssuedDist::0                 703644635     90.48%     90.48% # Number of insts issued each cycle (Count)
system.cpu.numIssuedDist::1                  63802559      8.20%     98.68% # Number of insts issued each cycle (Count)
system.cpu.numIssuedDist::2                   2332441      0.30%     98.98% # Number of insts issued each cycle (Count)
system.cpu.numIssuedDist::3                   3494262      0.45%     99.43% # Number of insts issued each cycle (Count)
system.cpu.numIssuedDist::4                   3564040      0.46%     99.89% # Number of insts issued each cycle (Count)
system.cpu.numIssuedDist::5                    360770      0.05%     99.94% # Number of insts issued each cycle (Count)
system.cpu.numIssuedDist::6                    175127      0.02%     99.96% # Number of insts issued each cycle (Count)
system.cpu.numIssuedDist::7                    152678      0.02%     99.98% # Number of insts issued each cycle (Count)
system.cpu.numIssuedDist::8                    176176      0.02%    100.00% # Number of insts issued each cycle (Count)
system.cpu.numIssuedDist::overflows                 0      0.00%    100.00% # Number of insts issued each cycle (Count)
system.cpu.numIssuedDist::min_value                 0                       # Number of insts issued each cycle (Count)
system.cpu.numIssuedDist::max_value                 8                       # Number of insts issued each cycle (Count)
system.cpu.numIssuedDist::total             777702688                       # Number of insts issued each cycle (Count)
system.cpu.statFuBusy::No_OpClass                   0      0.00%      0.00% # attempts to use FU when none available (Count)
system.cpu.statFuBusy::IntAlu                   10380      4.05%      4.05% # attempts to use FU when none available (Count)
system.cpu.statFuBusy::IntMult                      0      0.00%      4.05% # attempts to use FU when none available (Count)
system.cpu.statFuBusy::IntDiv                       0      0.00%      4.05% # attempts to use FU when none available (Count)
system.cpu.statFuBusy::FloatAdd                     0      0.00%      4.05% # attempts to use FU when none available (Count)
system.cpu.statFuBusy::FloatCmp                     0      0.00%      4.05% # attempts to use FU when none available (Count)
system.cpu.statFuBusy::FloatCvt                     0      0.00%      4.05% # attempts to use FU when none available (Count)
system.cpu.statFuBusy::FloatMult                    0      0.00%      4.05% # attempts to use FU when none available (Count)
system.cpu.statFuBusy::FloatMultAcc                 0      0.00%      4.05% # attempts to use FU when none available (Count)
system.cpu.statFuBusy::FloatDiv                     0      0.00%      4.05% # attempts to use FU when none available (Count)
system.cpu.statFuBusy::FloatMisc                    0      0.00%      4.05% # attempts to use FU when none available (Count)
system.cpu.statFuBusy::FloatSqrt                    0      0.00%      4.05% # attempts to use FU when none available (Count)
system.cpu.statFuBusy::SimdAdd                      0      0.00%      4.05% # attempts to use FU when none available (Count)
system.cpu.statFuBusy::SimdAddAcc                   0      0.00%      4.05% # attempts to use FU when none available (Count)
system.cpu.statFuBusy::SimdAlu                     15      0.01%      4.06% # attempts to use FU when none available (Count)
system.cpu.statFuBusy::SimdCmp                      0      0.00%      4.06% # attempts to use FU when none available (Count)
system.cpu.statFuBusy::SimdCvt                      9      0.00%      4.06% # attempts to use FU when none available (Count)
system.cpu.statFuBusy::SimdMisc                     5      0.00%      4.06% # attempts to use FU when none available (Count)
system.cpu.statFuBusy::SimdMult                     0      0.00%      4.06% # attempts to use FU when none available (Count)
system.cpu.statFuBusy::SimdMultAcc                  0      0.00%      4.06% # attempts to use FU when none available (Count)
system.cpu.statFuBusy::SimdShift                    0      0.00%      4.06% # attempts to use FU when none available (Count)
system.cpu.statFuBusy::SimdShiftAcc                 0      0.00%      4.06% # attempts to use FU when none available (Count)
system.cpu.statFuBusy::SimdDiv                      0      0.00%      4.06% # attempts to use FU when none available (Count)
system.cpu.statFuBusy::SimdSqrt                     0      0.00%      4.06% # attempts to use FU when none available (Count)
system.cpu.statFuBusy::SimdFloatAdd                 0      0.00%      4.06% # attempts to use FU when none available (Count)
system.cpu.statFuBusy::SimdFloatAlu                 0      0.00%      4.06% # attempts to use FU when none available (Count)
system.cpu.statFuBusy::SimdFloatCmp                 0      0.00%      4.06% # attempts to use FU when none available (Count)
system.cpu.statFuBusy::SimdFloatCvt                 0      0.00%      4.06% # attempts to use FU when none available (Count)
system.cpu.statFuBusy::SimdFloatDiv                 0      0.00%      4.06% # attempts to use FU when none available (Count)
system.cpu.statFuBusy::SimdFloatMisc                0      0.00%      4.06% # attempts to use FU when none available (Count)
system.cpu.statFuBusy::SimdFloatMult                0      0.00%      4.06% # attempts to use FU when none available (Count)
system.cpu.statFuBusy::SimdFloatMultAcc             0      0.00%      4.06% # attempts to use FU when none available (Count)
system.cpu.statFuBusy::SimdFloatSqrt                0      0.00%      4.06% # attempts to use FU when none available (Count)
system.cpu.statFuBusy::SimdReduceAdd                0      0.00%      4.06% # attempts to use FU when none available (Count)
system.cpu.statFuBusy::SimdReduceAlu                0      0.00%      4.06% # attempts to use FU when none available (Count)
system.cpu.statFuBusy::SimdReduceCmp                0      0.00%      4.06% # attempts to use FU when none available (Count)
system.cpu.statFuBusy::SimdFloatReduceAdd            0      0.00%      4.06% # attempts to use FU when none available (Count)
system.cpu.statFuBusy::SimdFloatReduceCmp            0      0.00%      4.06% # attempts to use FU when none available (Count)
system.cpu.statFuBusy::SimdAes                      0      0.00%      4.06% # attempts to use FU when none available (Count)
system.cpu.statFuBusy::SimdAesMix                   0      0.00%      4.06% # attempts to use FU when none available (Count)
system.cpu.statFuBusy::SimdSha1Hash                 0      0.00%      4.06% # attempts to use FU when none available (Count)
system.cpu.statFuBusy::SimdSha1Hash2                0      0.00%      4.06% # attempts to use FU when none available (Count)
system.cpu.statFuBusy::SimdSha256Hash               0      0.00%      4.06% # attempts to use FU when none available (Count)
system.cpu.statFuBusy::SimdSha256Hash2              0      0.00%      4.06% # attempts to use FU when none available (Count)
system.cpu.statFuBusy::SimdShaSigma2                0      0.00%      4.06% # attempts to use FU when none available (Count)
system.cpu.statFuBusy::SimdShaSigma3                0      0.00%      4.06% # attempts to use FU when none available (Count)
system.cpu.statFuBusy::SimdPredAlu                  0      0.00%      4.06% # attempts to use FU when none available (Count)
system.cpu.statFuBusy::MemRead                  25930     10.12%     14.18% # attempts to use FU when none available (Count)
system.cpu.statFuBusy::MemWrite                   187      0.07%     14.26% # attempts to use FU when none available (Count)
system.cpu.statFuBusy::FloatMemRead                11      0.00%     14.26% # attempts to use FU when none available (Count)
system.cpu.statFuBusy::FloatMemWrite           219663     85.74%    100.00% # attempts to use FU when none available (Count)
system.cpu.statFuBusy::IprAccess                    0      0.00%    100.00% # attempts to use FU when none available (Count)
system.cpu.statFuBusy::InstPrefetch                 0      0.00%    100.00% # attempts to use FU when none available (Count)
system.cpu.statIssuedInstType_0::No_OpClass          916      0.00%      0.00% # Number of instructions issued per FU type, per thread (Count)
system.cpu.statIssuedInstType_0::IntAlu      43727070     44.38%     44.38% # Number of instructions issued per FU type, per thread (Count)
system.cpu.statIssuedInstType_0::IntMult          749      0.00%     44.38% # Number of instructions issued per FU type, per thread (Count)
system.cpu.statIssuedInstType_0::IntDiv            53      0.00%     44.38% # Number of instructions issued per FU type, per thread (Count)
system.cpu.statIssuedInstType_0::FloatAdd          226      0.00%     44.38% # Number of instructions issued per FU type, per thread (Count)
system.cpu.statIssuedInstType_0::FloatCmp            0      0.00%     44.38% # Number of instructions issued per FU type, per thread (Count)
system.cpu.statIssuedInstType_0::FloatCvt            0      0.00%     44.38% # Number of instructions issued per FU type, per thread (Count)
system.cpu.statIssuedInstType_0::FloatMult            0      0.00%     44.38% # Number of instructions issued per FU type, per thread (Count)
system.cpu.statIssuedInstType_0::FloatMultAcc            0      0.00%     44.38% # Number of instructions issued per FU type, per thread (Count)
system.cpu.statIssuedInstType_0::FloatDiv            0      0.00%     44.38% # Number of instructions issued per FU type, per thread (Count)
system.cpu.statIssuedInstType_0::FloatMisc            0      0.00%     44.38% # Number of instructions issued per FU type, per thread (Count)
system.cpu.statIssuedInstType_0::FloatSqrt            0      0.00%     44.38% # Number of instructions issued per FU type, per thread (Count)
system.cpu.statIssuedInstType_0::SimdAdd            0      0.00%     44.38% # Number of instructions issued per FU type, per thread (Count)
system.cpu.statIssuedInstType_0::SimdAddAcc            0      0.00%     44.38% # Number of instructions issued per FU type, per thread (Count)
system.cpu.statIssuedInstType_0::SimdAlu          870      0.00%     44.38% # Number of instructions issued per FU type, per thread (Count)
system.cpu.statIssuedInstType_0::SimdCmp           12      0.00%     44.38% # Number of instructions issued per FU type, per thread (Count)
system.cpu.statIssuedInstType_0::SimdCvt          827      0.00%     44.38% # Number of instructions issued per FU type, per thread (Count)
system.cpu.statIssuedInstType_0::SimdMisc         1985      0.00%     44.38% # Number of instructions issued per FU type, per thread (Count)
system.cpu.statIssuedInstType_0::SimdMult            0      0.00%     44.38% # Number of instructions issued per FU type, per thread (Count)
system.cpu.statIssuedInstType_0::SimdMultAcc            0      0.00%     44.38% # Number of instructions issued per FU type, per thread (Count)
system.cpu.statIssuedInstType_0::SimdShift            0      0.00%     44.38% # Number of instructions issued per FU type, per thread (Count)
system.cpu.statIssuedInstType_0::SimdShiftAcc            0      0.00%     44.38% # Number of instructions issued per FU type, per thread (Count)
system.cpu.statIssuedInstType_0::SimdDiv            0      0.00%     44.38% # Number of instructions issued per FU type, per thread (Count)
system.cpu.statIssuedInstType_0::SimdSqrt            0      0.00%     44.38% # Number of instructions issued per FU type, per thread (Count)
system.cpu.statIssuedInstType_0::SimdFloatAdd            1      0.00%     44.38% # Number of instructions issued per FU type, per thread (Count)
system.cpu.statIssuedInstType_0::SimdFloatAlu            0      0.00%     44.38% # Number of instructions issued per FU type, per thread (Count)
system.cpu.statIssuedInstType_0::SimdFloatCmp            0      0.00%     44.38% # Number of instructions issued per FU type, per thread (Count)
system.cpu.statIssuedInstType_0::SimdFloatCvt            2      0.00%     44.38% # Number of instructions issued per FU type, per thread (Count)
system.cpu.statIssuedInstType_0::SimdFloatDiv            0      0.00%     44.38% # Number of instructions issued per FU type, per thread (Count)
system.cpu.statIssuedInstType_0::SimdFloatMisc            0      0.00%     44.38% # Number of instructions issued per FU type, per thread (Count)
system.cpu.statIssuedInstType_0::SimdFloatMult            0      0.00%     44.38% # Number of instructions issued per FU type, per thread (Count)
system.cpu.statIssuedInstType_0::SimdFloatMultAcc            0      0.00%     44.38% # Number of instructions issued per FU type, per thread (Count)
system.cpu.statIssuedInstType_0::SimdFloatSqrt            0      0.00%     44.38% # Number of instructions issued per FU type, per thread (Count)
system.cpu.statIssuedInstType_0::SimdReduceAdd            0      0.00%     44.38% # Number of instructions issued per FU type, per thread (Count)
system.cpu.statIssuedInstType_0::SimdReduceAlu            0      0.00%     44.38% # Number of instructions issued per FU type, per thread (Count)
system.cpu.statIssuedInstType_0::SimdReduceCmp            0      0.00%     44.38% # Number of instructions issued per FU type, per thread (Count)
system.cpu.statIssuedInstType_0::SimdFloatReduceAdd            0      0.00%     44.38% # Number of instructions issued per FU type, per thread (Count)
system.cpu.statIssuedInstType_0::SimdFloatReduceCmp            0      0.00%     44.38% # Number of instructions issued per FU type, per thread (Count)
system.cpu.statIssuedInstType_0::SimdAes            0      0.00%     44.38% # Number of instructions issued per FU type, per thread (Count)
system.cpu.statIssuedInstType_0::SimdAesMix            0      0.00%     44.38% # Number of instructions issued per FU type, per thread (Count)
system.cpu.statIssuedInstType_0::SimdSha1Hash            0      0.00%     44.38% # Number of instructions issued per FU type, per thread (Count)
system.cpu.statIssuedInstType_0::SimdSha1Hash2            0      0.00%     44.38% # Number of instructions issued per FU type, per thread (Count)
system.cpu.statIssuedInstType_0::SimdSha256Hash            0      0.00%     44.38% # Number of instructions issued per FU type, per thread (Count)
system.cpu.statIssuedInstType_0::SimdSha256Hash2            0      0.00%     44.38% # Number of instructions issued per FU type, per thread (Count)
system.cpu.statIssuedInstType_0::SimdShaSigma2            0      0.00%     44.38% # Number of instructions issued per FU type, per thread (Count)
system.cpu.statIssuedInstType_0::SimdShaSigma3            0      0.00%     44.38% # Number of instructions issued per FU type, per thread (Count)
system.cpu.statIssuedInstType_0::SimdPredAlu            0      0.00%     44.38% # Number of instructions issued per FU type, per thread (Count)
system.cpu.statIssuedInstType_0::MemRead      1365641      1.39%     45.77% # Number of instructions issued per FU type, per thread (Count)
system.cpu.statIssuedInstType_0::MemWrite       205138      0.21%     45.98% # Number of instructions issued per FU type, per thread (Count)
system.cpu.statIssuedInstType_0::FloatMemRead          561      0.00%     45.98% # Number of instructions issued per FU type, per thread (Count)
system.cpu.statIssuedInstType_0::FloatMemWrite     53235102     54.02%    100.00% # Number of instructions issued per FU type, per thread (Count)
system.cpu.statIssuedInstType_0::IprAccess            0      0.00%    100.00% # Number of instructions issued per FU type, per thread (Count)
system.cpu.statIssuedInstType_0::InstPrefetch            0      0.00%    100.00% # Number of instructions issued per FU type, per thread (Count)
system.cpu.statIssuedInstType_0::total       98539153                       # Number of instructions issued per FU type, per thread (Count)
system.cpu.issueRate                         0.126698                       # Inst issue rate ((Count/Cycle))
system.cpu.fuBusy                              256200                       # FU busy when requested (Count)
system.cpu.fuBusyRate                        0.002600                       # FU busy rate (busy events/executed inst) ((Count/Count))
system.cpu.intInstQueueReads                868337549                       # Number of integer instruction queue reads (Count)
system.cpu.intInstQueueWrites                46544891                       # Number of integer instruction queue writes (Count)
system.cpu.intInstQueueWakeupAccesses        45286651                       # Number of integer instruction queue wakeup accesses (Count)
system.cpu.fpInstQueueReads                 106700015                       # Number of floating instruction queue reads (Count)
system.cpu.fpInstQueueWrites                 54647369                       # Number of floating instruction queue writes (Count)
system.cpu.fpInstQueueWakeupAccesses         51921812                       # Number of floating instruction queue wakeup accesses (Count)
system.cpu.vecInstQueueReads                        0                       # Number of vector instruction queue reads (Count)
system.cpu.vecInstQueueWrites                       0                       # Number of vector instruction queue writes (Count)
system.cpu.vecInstQueueWakeupAccesses               0                       # Number of vector instruction queue wakeup accesses (Count)
system.cpu.intAluAccesses                    45334585                       # Number of integer alu accesses (Count)
system.cpu.fpAluAccesses                     53459852                       # Number of floating point alu accesses (Count)
system.cpu.vecAluAccesses                           0                       # Number of vector alu accesses (Count)
system.cpu.numInsts                          98530835                       # Number of executed instructions (Count)
system.cpu.numLoadInsts                       1363511                       # Number of load instructions executed (Count)
system.cpu.numSquashedInsts                      8317                       # Number of squashed instructions skipped in execute (Count)
system.cpu.numSwp                                   0                       # Number of swp insts executed (Count)
system.cpu.numNop                                   0                       # Number of nop insts executed (Count)
system.cpu.numRefs                           54803150                       # Number of memory reference insts executed (Count)
system.cpu.numBranches                        6726376                       # Number of branches executed (Count)
system.cpu.numStoreInsts                     53439639                       # Number of stores executed (Count)
system.cpu.numRate                           0.126687                       # Inst execution rate ((Count/Cycle))
system.cpu.timesIdled                             677                       # Number of times that the entire CPU went into an idle state and unscheduled itself (Count)
system.cpu.idleCycles                           46191                       # Total number of cycles that the CPU has spent unscheduled due to idling (Cycle)
system.cpu.committedInsts                    50000000                       # Number of Instructions Simulated (Count)
system.cpu.committedOps                      95981348                       # Number of Ops (including micro ops) Simulated (Count)
system.cpu.cpi                              15.554978                       # CPI: Cycles Per Instruction ((Cycle/Count))
system.cpu.totalCpi                         15.554978                       # CPI: Total CPI of All Threads ((Cycle/Count))
system.cpu.ipc                               0.064288                       # IPC: Instructions Per Cycle ((Count/Cycle))
system.cpu.totalIpc                          0.064288                       # IPC: Total IPC of All Threads ((Count/Cycle))
system.cpu.intRegfileReads                  102239256                       # Number of integer regfile reads (Count)
system.cpu.intRegfileWrites                  31536142                       # Number of integer regfile writes (Count)
system.cpu.fpRegfileReads                    53244059                       # Number of floating regfile reads (Count)
system.cpu.fpRegfileWrites                       4467                       # Number of floating regfile writes (Count)
system.cpu.ccRegfileReads                    35399850                       # number of cc regfile reads (Count)
system.cpu.ccRegfileWrites                   30029316                       # number of cc regfile writes (Count)
system.cpu.miscRegfileReads                  68270598                       # number of misc regfile reads (Count)
system.cpu.MemDepUnit__0.insertedLoads        1373292                       # Number of loads inserted to the mem dependence unit. (Count)
system.cpu.MemDepUnit__0.insertedStores      53444451                       # Number of stores inserted to the mem dependence unit. (Count)
system.cpu.MemDepUnit__0.conflictingLoads       185571                       # Number of conflicting loads. (Count)
system.cpu.MemDepUnit__0.conflictingStores        35082                       # Number of conflicting stores. (Count)
system.cpu.MemDepUnit__1.insertedLoads              0                       # Number of loads inserted to the mem dependence unit. (Count)
system.cpu.MemDepUnit__1.insertedStores             0                       # Number of stores inserted to the mem dependence unit. (Count)
system.cpu.MemDepUnit__1.conflictingLoads            0                       # Number of conflicting loads. (Count)
system.cpu.MemDepUnit__1.conflictingStores            0                       # Number of conflicting stores. (Count)
system.cpu.MemDepUnit__2.insertedLoads              0                       # Number of loads inserted to the mem dependence unit. (Count)
system.cpu.MemDepUnit__2.insertedStores             0                       # Number of stores inserted to the mem dependence unit. (Count)
system.cpu.MemDepUnit__2.conflictingLoads            0                       # Number of conflicting loads. (Count)
system.cpu.MemDepUnit__2.conflictingStores            0                       # Number of conflicting stores. (Count)
system.cpu.MemDepUnit__3.insertedLoads              0                       # Number of loads inserted to the mem dependence unit. (Count)
system.cpu.MemDepUnit__3.insertedStores             0                       # Number of stores inserted to the mem dependence unit. (Count)
system.cpu.MemDepUnit__3.conflictingLoads            0                       # Number of conflicting loads. (Count)
system.cpu.MemDepUnit__3.conflictingStores            0                       # Number of conflicting stores. (Count)
system.cpu.branchPred.lookups                 6872431                       # Number of BP lookups (Count)
system.cpu.branchPred.condPredicted           6855439                       # Number of conditional branches predicted (Count)
system.cpu.branchPred.condIncorrect              4754                       # Number of conditional branches incorrect (Count)
system.cpu.branchPred.BTBLookups              6851473                       # Number of BTB lookups (Count)
system.cpu.branchPred.BTBHits                 6846734                       # Number of BTB hits (Count)
system.cpu.branchPred.BTBHitRatio            0.999308                       # BTB Hit Ratio (Ratio)
system.cpu.branchPred.RASUsed                    4987                       # Number of times the RAS was used to get a target. (Count)
system.cpu.branchPred.RASIncorrect                  5                       # Number of incorrect RAS predictions. (Count)
system.cpu.branchPred.indirectLookups            1280                       # Number of indirect predictor lookups. (Count)
system.cpu.branchPred.indirectHits                610                       # Number of indirect target hits. (Count)
system.cpu.branchPred.indirectMisses              670                       # Number of indirect misses. (Count)
system.cpu.branchPred.indirectMispredicted          188                       # Number of mispredicted indirect branches. (Count)
system.cpu.commit.commitSquashedInsts         2292809                       # The number of squashed insts skipped by commit (Count)
system.cpu.commit.commitNonSpecStalls              48                       # The number of times commit has been forced to stall to communicate backwards (Count)
system.cpu.commit.branchMispredicts              3560                       # The number of times a branch was mispredicted (Count)
system.cpu.commit.numCommittedDist::samples    777375234                       # Number of insts commited each cycle (Count)
system.cpu.commit.numCommittedDist::mean     0.123468                       # Number of insts commited each cycle (Count)
system.cpu.commit.numCommittedDist::stdev     0.478463                       # Number of insts commited each cycle (Count)
system.cpu.commit.numCommittedDist::underflows            0      0.00%      0.00% # Number of insts commited each cycle (Count)
system.cpu.commit.numCommittedDist::0       705471772     90.75%     90.75% # Number of insts commited each cycle (Count)
system.cpu.commit.numCommittedDist::1        59201539      7.62%     98.37% # Number of insts commited each cycle (Count)
system.cpu.commit.numCommittedDist::2         5313875      0.68%     99.05% # Number of insts commited each cycle (Count)
system.cpu.commit.numCommittedDist::3         6464152      0.83%     99.88% # Number of insts commited each cycle (Count)
system.cpu.commit.numCommittedDist::4           95520      0.01%     99.89% # Number of insts commited each cycle (Count)
system.cpu.commit.numCommittedDist::5           54629      0.01%     99.90% # Number of insts commited each cycle (Count)
system.cpu.commit.numCommittedDist::6           24066      0.00%     99.90% # Number of insts commited each cycle (Count)
system.cpu.commit.numCommittedDist::7           37466      0.00%     99.91% # Number of insts commited each cycle (Count)
system.cpu.commit.numCommittedDist::8          712215      0.09%    100.00% # Number of insts commited each cycle (Count)
system.cpu.commit.numCommittedDist::overflows            0      0.00%    100.00% # Number of insts commited each cycle (Count)
system.cpu.commit.numCommittedDist::min_value            0                       # Number of insts commited each cycle (Count)
system.cpu.commit.numCommittedDist::max_value            8                       # Number of insts commited each cycle (Count)
system.cpu.commit.numCommittedDist::total    777375234                       # Number of insts commited each cycle (Count)
system.cpu.commit.instsCommitted             50000000                       # Number of instructions committed (Count)
system.cpu.commit.opsCommitted               95981348                       # Number of ops (including micro ops) committed (Count)
system.cpu.commit.memRefs                    53378553                       # Number of memory references committed (Count)
system.cpu.commit.loads                       1350124                       # Number of loads committed (Count)
system.cpu.commit.amos                              0                       # Number of atomic instructions committed (Count)
system.cpu.commit.membars                          32                       # Number of memory barriers committed (Count)
system.cpu.commit.branches                    6543969                       # Number of branches committed (Count)
system.cpu.commit.vectorInstructions                0                       # Number of committed Vector instructions. (Count)
system.cpu.commit.floating                   51833451                       # Number of committed floating point instructions. (Count)
system.cpu.commit.integer                    95975921                       # Number of committed integer instructions. (Count)
system.cpu.commit.functionCalls                  3805                       # Number of function calls committed. (Count)
system.cpu.commit.committedInstType_0::No_OpClass          551      0.00%      0.00% # Class of committed instruction (Count)
system.cpu.commit.committedInstType_0::IntAlu     42597874     44.38%     44.38% # Class of committed instruction (Count)
system.cpu.commit.committedInstType_0::IntMult          725      0.00%     44.38% # Class of committed instruction (Count)
system.cpu.commit.committedInstType_0::IntDiv           21      0.00%     44.38% # Class of committed instruction (Count)
system.cpu.commit.committedInstType_0::FloatAdd          199      0.00%     44.38% # Class of committed instruction (Count)
system.cpu.commit.committedInstType_0::FloatCmp            0      0.00%     44.38% # Class of committed instruction (Count)
system.cpu.commit.committedInstType_0::FloatCvt            0      0.00%     44.38% # Class of committed instruction (Count)
system.cpu.commit.committedInstType_0::FloatMult            0      0.00%     44.38% # Class of committed instruction (Count)
system.cpu.commit.committedInstType_0::FloatMultAcc            0      0.00%     44.38% # Class of committed instruction (Count)
system.cpu.commit.committedInstType_0::FloatDiv            0      0.00%     44.38% # Class of committed instruction (Count)
system.cpu.commit.committedInstType_0::FloatMisc            0      0.00%     44.38% # Class of committed instruction (Count)
system.cpu.commit.committedInstType_0::FloatSqrt            0      0.00%     44.38% # Class of committed instruction (Count)
system.cpu.commit.committedInstType_0::SimdAdd            0      0.00%     44.38% # Class of committed instruction (Count)
system.cpu.commit.committedInstType_0::SimdAddAcc            0      0.00%     44.38% # Class of committed instruction (Count)
system.cpu.commit.committedInstType_0::SimdAlu          786      0.00%     44.38% # Class of committed instruction (Count)
system.cpu.commit.committedInstType_0::SimdCmp           12      0.00%     44.38% # Class of committed instruction (Count)
system.cpu.commit.committedInstType_0::SimdCvt          788      0.00%     44.38% # Class of committed instruction (Count)
system.cpu.commit.committedInstType_0::SimdMisc         1839      0.00%     44.39% # Class of committed instruction (Count)
system.cpu.commit.committedInstType_0::SimdMult            0      0.00%     44.39% # Class of committed instruction (Count)
system.cpu.commit.committedInstType_0::SimdMultAcc            0      0.00%     44.39% # Class of committed instruction (Count)
system.cpu.commit.committedInstType_0::SimdShift            0      0.00%     44.39% # Class of committed instruction (Count)
system.cpu.commit.committedInstType_0::SimdShiftAcc            0      0.00%     44.39% # Class of committed instruction (Count)
system.cpu.commit.committedInstType_0::SimdDiv            0      0.00%     44.39% # Class of committed instruction (Count)
system.cpu.commit.committedInstType_0::SimdSqrt            0      0.00%     44.39% # Class of committed instruction (Count)
system.cpu.commit.committedInstType_0::SimdFloatAdd            0      0.00%     44.39% # Class of committed instruction (Count)
system.cpu.commit.committedInstType_0::SimdFloatAlu            0      0.00%     44.39% # Class of committed instruction (Count)
system.cpu.commit.committedInstType_0::SimdFloatCmp            0      0.00%     44.39% # Class of committed instruction (Count)
system.cpu.commit.committedInstType_0::SimdFloatCvt            0      0.00%     44.39% # Class of committed instruction (Count)
system.cpu.commit.committedInstType_0::SimdFloatDiv            0      0.00%     44.39% # Class of committed instruction (Count)
system.cpu.commit.committedInstType_0::SimdFloatMisc            0      0.00%     44.39% # Class of committed instruction (Count)
system.cpu.commit.committedInstType_0::SimdFloatMult            0      0.00%     44.39% # Class of committed instruction (Count)
system.cpu.commit.committedInstType_0::SimdFloatMultAcc            0      0.00%     44.39% # Class of committed instruction (Count)
system.cpu.commit.committedInstType_0::SimdFloatSqrt            0      0.00%     44.39% # Class of committed instruction (Count)
system.cpu.commit.committedInstType_0::SimdReduceAdd            0      0.00%     44.39% # Class of committed instruction (Count)
system.cpu.commit.committedInstType_0::SimdReduceAlu            0      0.00%     44.39% # Class of committed instruction (Count)
system.cpu.commit.committedInstType_0::SimdReduceCmp            0      0.00%     44.39% # Class of committed instruction (Count)
system.cpu.commit.committedInstType_0::SimdFloatReduceAdd            0      0.00%     44.39% # Class of committed instruction (Count)
system.cpu.commit.committedInstType_0::SimdFloatReduceCmp            0      0.00%     44.39% # Class of committed instruction (Count)
system.cpu.commit.committedInstType_0::SimdAes            0      0.00%     44.39% # Class of committed instruction (Count)
system.cpu.commit.committedInstType_0::SimdAesMix            0      0.00%     44.39% # Class of committed instruction (Count)
system.cpu.commit.committedInstType_0::SimdSha1Hash            0      0.00%     44.39% # Class of committed instruction (Count)
system.cpu.commit.committedInstType_0::SimdSha1Hash2            0      0.00%     44.39% # Class of committed instruction (Count)
system.cpu.commit.committedInstType_0::SimdSha256Hash            0      0.00%     44.39% # Class of committed instruction (Count)
system.cpu.commit.committedInstType_0::SimdSha256Hash2            0      0.00%     44.39% # Class of committed instruction (Count)
system.cpu.commit.committedInstType_0::SimdShaSigma2            0      0.00%     44.39% # Class of committed instruction (Count)
system.cpu.commit.committedInstType_0::SimdShaSigma3            0      0.00%     44.39% # Class of committed instruction (Count)
system.cpu.commit.committedInstType_0::SimdPredAlu            0      0.00%     44.39% # Class of committed instruction (Count)
system.cpu.commit.committedInstType_0::MemRead      1349676      1.41%     45.79% # Class of committed instruction (Count)
system.cpu.commit.committedInstType_0::MemWrite       199599      0.21%     46.00% # Class of committed instruction (Count)
system.cpu.commit.committedInstType_0::FloatMemRead          448      0.00%     46.00% # Class of committed instruction (Count)
system.cpu.commit.committedInstType_0::FloatMemWrite     51828830     54.00%    100.00% # Class of committed instruction (Count)
system.cpu.commit.committedInstType_0::IprAccess            0      0.00%    100.00% # Class of committed instruction (Count)
system.cpu.commit.committedInstType_0::InstPrefetch            0      0.00%    100.00% # Class of committed instruction (Count)
system.cpu.commit.committedInstType_0::total     95981348                       # Class of committed instruction (Count)
system.cpu.commit.commitEligibleSamples        712215                       # number cycles where commit BW limit reached (Cycle)
system.cpu.dcache.demandHits::cpu.data       46596388                       # number of demand (read+write) hits (Count)
system.cpu.dcache.demandHits::total          46596388                       # number of demand (read+write) hits (Count)
system.cpu.dcache.overallHits::cpu.data      46596388                       # number of overall hits (Count)
system.cpu.dcache.overallHits::total         46596388                       # number of overall hits (Count)
system.cpu.dcache.demandMisses::cpu.data      6482364                       # number of demand (read+write) misses (Count)
system.cpu.dcache.demandMisses::total         6482364                       # number of demand (read+write) misses (Count)
system.cpu.dcache.overallMisses::cpu.data      6482364                       # number of overall misses (Count)
system.cpu.dcache.overallMisses::total        6482364                       # number of overall misses (Count)
system.cpu.dcache.demandMissLatency::cpu.data 684678059999                       # number of demand (read+write) miss ticks (Tick)
system.cpu.dcache.demandMissLatency::total 684678059999                       # number of demand (read+write) miss ticks (Tick)
system.cpu.dcache.overallMissLatency::cpu.data 684678059999                       # number of overall miss ticks (Tick)
system.cpu.dcache.overallMissLatency::total 684678059999                       # number of overall miss ticks (Tick)
system.cpu.dcache.demandAccesses::cpu.data     53078752                       # number of demand (read+write) accesses (Count)
system.cpu.dcache.demandAccesses::total      53078752                       # number of demand (read+write) accesses (Count)
system.cpu.dcache.overallAccesses::cpu.data     53078752                       # number of overall (read+write) accesses (Count)
system.cpu.dcache.overallAccesses::total     53078752                       # number of overall (read+write) accesses (Count)
system.cpu.dcache.demandMissRate::cpu.data     0.122127                       # miss rate for demand accesses (Ratio)
system.cpu.dcache.demandMissRate::total      0.122127                       # miss rate for demand accesses (Ratio)
system.cpu.dcache.overallMissRate::cpu.data     0.122127                       # miss rate for overall accesses (Ratio)
system.cpu.dcache.overallMissRate::total     0.122127                       # miss rate for overall accesses (Ratio)
system.cpu.dcache.demandAvgMissLatency::cpu.data 105621.662097                       # average overall miss latency in ticks ((Tick/Count))
system.cpu.dcache.demandAvgMissLatency::total 105621.662097                       # average overall miss latency in ticks ((Tick/Count))
system.cpu.dcache.overallAvgMissLatency::cpu.data 105621.662097                       # average overall miss latency ((Tick/Count))
system.cpu.dcache.overallAvgMissLatency::total 105621.662097                       # average overall miss latency ((Tick/Count))
system.cpu.dcache.blockedCycles::no_mshrs         1547                       # number of cycles access was blocked (Cycle)
system.cpu.dcache.blockedCycles::no_targets            0                       # number of cycles access was blocked (Cycle)
system.cpu.dcache.blockedCauses::no_mshrs           41                       # number of times access was blocked (Count)
system.cpu.dcache.blockedCauses::no_targets            0                       # number of times access was blocked (Count)
system.cpu.dcache.avgBlocked::no_mshrs      37.731707                       # average number of cycles each access was blocked ((Cycle/Count))
system.cpu.dcache.avgBlocked::no_targets          nan                       # average number of cycles each access was blocked ((Cycle/Count))
system.cpu.dcache.writebacks::writebacks      6481151                       # number of writebacks (Count)
system.cpu.dcache.writebacks::total           6481151                       # number of writebacks (Count)
system.cpu.dcache.demandMshrHits::cpu.data          406                       # number of demand (read+write) MSHR hits (Count)
system.cpu.dcache.demandMshrHits::total           406                       # number of demand (read+write) MSHR hits (Count)
system.cpu.dcache.overallMshrHits::cpu.data          406                       # number of overall MSHR hits (Count)
system.cpu.dcache.overallMshrHits::total          406                       # number of overall MSHR hits (Count)
system.cpu.dcache.demandMshrMisses::cpu.data      6481958                       # number of demand (read+write) MSHR misses (Count)
system.cpu.dcache.demandMshrMisses::total      6481958                       # number of demand (read+write) MSHR misses (Count)
system.cpu.dcache.overallMshrMisses::cpu.data      6481958                       # number of overall MSHR misses (Count)
system.cpu.dcache.overallMshrMisses::total      6481958                       # number of overall MSHR misses (Count)
system.cpu.dcache.demandMshrMissLatency::cpu.data 671680912999                       # number of demand (read+write) MSHR miss ticks (Tick)
system.cpu.dcache.demandMshrMissLatency::total 671680912999                       # number of demand (read+write) MSHR miss ticks (Tick)
system.cpu.dcache.overallMshrMissLatency::cpu.data 671680912999                       # number of overall MSHR miss ticks (Tick)
system.cpu.dcache.overallMshrMissLatency::total 671680912999                       # number of overall MSHR miss ticks (Tick)
system.cpu.dcache.demandMshrMissRate::cpu.data     0.122120                       # mshr miss ratio for demand accesses (Ratio)
system.cpu.dcache.demandMshrMissRate::total     0.122120                       # mshr miss ratio for demand accesses (Ratio)
system.cpu.dcache.overallMshrMissRate::cpu.data     0.122120                       # mshr miss ratio for overall accesses (Ratio)
system.cpu.dcache.overallMshrMissRate::total     0.122120                       # mshr miss ratio for overall accesses (Ratio)
system.cpu.dcache.demandAvgMshrMissLatency::cpu.data 103623.151060                       # average overall mshr miss latency ((Tick/Count))
system.cpu.dcache.demandAvgMshrMissLatency::total 103623.151060                       # average overall mshr miss latency ((Tick/Count))
system.cpu.dcache.overallAvgMshrMissLatency::cpu.data 103623.151060                       # average overall mshr miss latency ((Tick/Count))
system.cpu.dcache.overallAvgMshrMissLatency::total 103623.151060                       # average overall mshr miss latency ((Tick/Count))
system.cpu.dcache.replacements                6481446                       # number of replacements (Count)
system.cpu.dcache.LockedRMWReadReq.hits::cpu.data           16                       # number of LockedRMWReadReq hits (Count)
system.cpu.dcache.LockedRMWReadReq.hits::total           16                       # number of LockedRMWReadReq hits (Count)
system.cpu.dcache.LockedRMWReadReq.accesses::cpu.data           16                       # number of LockedRMWReadReq accesses(hits+misses) (Count)
system.cpu.dcache.LockedRMWReadReq.accesses::total           16                       # number of LockedRMWReadReq accesses(hits+misses) (Count)
system.cpu.dcache.LockedRMWReadReq.mshrMissLatency::cpu.data       148000                       # number of LockedRMWReadReq MSHR miss ticks (Tick)
system.cpu.dcache.LockedRMWReadReq.mshrMissLatency::total       148000                       # number of LockedRMWReadReq MSHR miss ticks (Tick)
system.cpu.dcache.LockedRMWReadReq.avgMshrMissLatency::cpu.data          inf                       # average LockedRMWReadReq mshr miss latency ((Tick/Count))
system.cpu.dcache.LockedRMWReadReq.avgMshrMissLatency::total          inf                       # average LockedRMWReadReq mshr miss latency ((Tick/Count))
system.cpu.dcache.LockedRMWWriteReq.hits::cpu.data           16                       # number of LockedRMWWriteReq hits (Count)
system.cpu.dcache.LockedRMWWriteReq.hits::total           16                       # number of LockedRMWWriteReq hits (Count)
system.cpu.dcache.LockedRMWWriteReq.accesses::cpu.data           16                       # number of LockedRMWWriteReq accesses(hits+misses) (Count)
system.cpu.dcache.LockedRMWWriteReq.accesses::total           16                       # number of LockedRMWWriteReq accesses(hits+misses) (Count)
system.cpu.dcache.ReadReq.hits::cpu.data      1049564                       # number of ReadReq hits (Count)
system.cpu.dcache.ReadReq.hits::total         1049564                       # number of ReadReq hits (Count)
system.cpu.dcache.ReadReq.misses::cpu.data          802                       # number of ReadReq misses (Count)
system.cpu.dcache.ReadReq.misses::total           802                       # number of ReadReq misses (Count)
system.cpu.dcache.ReadReq.missLatency::cpu.data     77671000                       # number of ReadReq miss ticks (Tick)
system.cpu.dcache.ReadReq.missLatency::total     77671000                       # number of ReadReq miss ticks (Tick)
system.cpu.dcache.ReadReq.accesses::cpu.data      1050366                       # number of ReadReq accesses(hits+misses) (Count)
system.cpu.dcache.ReadReq.accesses::total      1050366                       # number of ReadReq accesses(hits+misses) (Count)
system.cpu.dcache.ReadReq.missRate::cpu.data     0.000764                       # miss rate for ReadReq accesses (Ratio)
system.cpu.dcache.ReadReq.missRate::total     0.000764                       # miss rate for ReadReq accesses (Ratio)
system.cpu.dcache.ReadReq.avgMissLatency::cpu.data 96846.633416                       # average ReadReq miss latency ((Tick/Count))
system.cpu.dcache.ReadReq.avgMissLatency::total 96846.633416                       # average ReadReq miss latency ((Tick/Count))
system.cpu.dcache.ReadReq.mshrHits::cpu.data          404                       # number of ReadReq MSHR hits (Count)
system.cpu.dcache.ReadReq.mshrHits::total          404                       # number of ReadReq MSHR hits (Count)
system.cpu.dcache.ReadReq.mshrMisses::cpu.data          398                       # number of ReadReq MSHR misses (Count)
system.cpu.dcache.ReadReq.mshrMisses::total          398                       # number of ReadReq MSHR misses (Count)
system.cpu.dcache.ReadReq.mshrMissLatency::cpu.data     43740000                       # number of ReadReq MSHR miss ticks (Tick)
system.cpu.dcache.ReadReq.mshrMissLatency::total     43740000                       # number of ReadReq MSHR miss ticks (Tick)
system.cpu.dcache.ReadReq.mshrMissRate::cpu.data     0.000379                       # mshr miss rate for ReadReq accesses (Ratio)
system.cpu.dcache.ReadReq.mshrMissRate::total     0.000379                       # mshr miss rate for ReadReq accesses (Ratio)
system.cpu.dcache.ReadReq.avgMshrMissLatency::cpu.data 109899.497487                       # average ReadReq mshr miss latency ((Tick/Count))
system.cpu.dcache.ReadReq.avgMshrMissLatency::total 109899.497487                       # average ReadReq mshr miss latency ((Tick/Count))
system.cpu.dcache.WriteReq.hits::cpu.data     45546824                       # number of WriteReq hits (Count)
system.cpu.dcache.WriteReq.hits::total       45546824                       # number of WriteReq hits (Count)
system.cpu.dcache.WriteReq.misses::cpu.data      6481562                       # number of WriteReq misses (Count)
system.cpu.dcache.WriteReq.misses::total      6481562                       # number of WriteReq misses (Count)
system.cpu.dcache.WriteReq.missLatency::cpu.data 684600388999                       # number of WriteReq miss ticks (Tick)
system.cpu.dcache.WriteReq.missLatency::total 684600388999                       # number of WriteReq miss ticks (Tick)
system.cpu.dcache.WriteReq.accesses::cpu.data     52028386                       # number of WriteReq accesses(hits+misses) (Count)
system.cpu.dcache.WriteReq.accesses::total     52028386                       # number of WriteReq accesses(hits+misses) (Count)
system.cpu.dcache.WriteReq.missRate::cpu.data     0.124577                       # miss rate for WriteReq accesses (Ratio)
system.cpu.dcache.WriteReq.missRate::total     0.124577                       # miss rate for WriteReq accesses (Ratio)
system.cpu.dcache.WriteReq.avgMissLatency::cpu.data 105622.747881                       # average WriteReq miss latency ((Tick/Count))
system.cpu.dcache.WriteReq.avgMissLatency::total 105622.747881                       # average WriteReq miss latency ((Tick/Count))
system.cpu.dcache.WriteReq.mshrHits::cpu.data            2                       # number of WriteReq MSHR hits (Count)
system.cpu.dcache.WriteReq.mshrHits::total            2                       # number of WriteReq MSHR hits (Count)
system.cpu.dcache.WriteReq.mshrMisses::cpu.data      6481560                       # number of WriteReq MSHR misses (Count)
system.cpu.dcache.WriteReq.mshrMisses::total      6481560                       # number of WriteReq MSHR misses (Count)
system.cpu.dcache.WriteReq.mshrMissLatency::cpu.data 671637172999                       # number of WriteReq MSHR miss ticks (Tick)
system.cpu.dcache.WriteReq.mshrMissLatency::total 671637172999                       # number of WriteReq MSHR miss ticks (Tick)
system.cpu.dcache.WriteReq.mshrMissRate::cpu.data     0.124577                       # mshr miss rate for WriteReq accesses (Ratio)
system.cpu.dcache.WriteReq.mshrMissRate::total     0.124577                       # mshr miss rate for WriteReq accesses (Ratio)
system.cpu.dcache.WriteReq.avgMshrMissLatency::cpu.data 103622.765661                       # average WriteReq mshr miss latency ((Tick/Count))
system.cpu.dcache.WriteReq.avgMshrMissLatency::total 103622.765661                       # average WriteReq mshr miss latency ((Tick/Count))
system.cpu.dcache.power_state.pwrStateResidencyTicks::UNDEFINED 777748878000                       # Cumulative time (in ticks) in various power states (Tick)
system.cpu.dcache.tags.tagsInUse           511.964500                       # Average ticks per tags in use ((Tick/Count))
system.cpu.dcache.tags.totalRefs             53078378                       # Total number of references to valid blocks. (Count)
system.cpu.dcache.tags.sampledRefs            6481958                       # Sample count of references to valid blocks. (Count)
system.cpu.dcache.tags.avgRefs               8.188633                       # Average number of references to valid blocks. ((Count/Count))
system.cpu.dcache.tags.warmupTick              222000                       # The tick when the warmup percentage was hit. (Tick)
system.cpu.dcache.tags.occupancies::cpu.data   511.964500                       # Average occupied blocks per tick, per requestor ((Count/Tick))
system.cpu.dcache.tags.avgOccs::cpu.data     0.999931                       # Average percentage of cache occupancy ((Ratio/Tick))
system.cpu.dcache.tags.avgOccs::total        0.999931                       # Average percentage of cache occupancy ((Ratio/Tick))
system.cpu.dcache.tags.occupanciesTaskId::1024          512                       # Occupied blocks per task id (Count)
system.cpu.dcache.tags.ageTaskId_1024::0           85                       # Occupied blocks per task id, per block age (Count)
system.cpu.dcache.tags.ageTaskId_1024::1          427                       # Occupied blocks per task id, per block age (Count)
system.cpu.dcache.tags.ratioOccsTaskId::1024            1                       # Ratio of occupied blocks and all blocks, per task id (Ratio)
system.cpu.dcache.tags.tagAccesses          218797094                       # Number of tag accesses (Count)
system.cpu.dcache.tags.dataAccesses         218797094                       # Number of data accesses (Count)
system.cpu.dcache.tags.power_state.pwrStateResidencyTicks::UNDEFINED 777748878000                       # Cumulative time (in ticks) in various power states (Tick)
system.cpu.decode.idleCycles                  4023705                       # Number of cycles decode is idle (Cycle)
system.cpu.decode.blockedCycles             761234980                       # Number of cycles decode is blocked (Cycle)
system.cpu.decode.runCycles                    793183                       # Number of cycles decode is running (Cycle)
system.cpu.decode.unblockCycles              11602896                       # Number of cycles decode is unblocking (Cycle)
system.cpu.decode.squashCycles                  47924                       # Number of cycles decode is squashing (Cycle)
system.cpu.decode.branchResolved              6714217                       # Number of times decode resolved a branch (Count)
system.cpu.decode.branchMispred                  1253                       # Number of times decode detected a branch misprediction (Count)
system.cpu.decode.decodedInsts               98894784                       # Number of instructions handled by decode (Count)
system.cpu.decode.squashedInsts                  5935                       # Number of squashed instructions handled by decode (Count)
system.cpu.fetch.icacheStallCycles             336859                       # Number of cycles fetch is stalled on an Icache miss (Cycle)
system.cpu.fetch.insts                       52595382                       # Number of instructions fetch has processed (Count)
system.cpu.fetch.branches                     6872431                       # Number of branches that fetch encountered (Count)
system.cpu.fetch.predictedBranches            6852331                       # Number of branches that fetch has predicted taken (Count)
system.cpu.fetch.cycles                     777316262                       # Number of cycles fetch has run and was not squashing or blocked (Cycle)
system.cpu.fetch.squashCycles                   98304                       # Number of cycles fetch has spent squashing (Cycle)
system.cpu.fetch.miscStallCycles                   46                       # Number of cycles fetch has spent waiting on interrupts, or bad addresses, or out of MSHRs (Cycle)
system.cpu.fetch.pendingTrapStallCycles           328                       # Number of stall cycles due to pending traps (Cycle)
system.cpu.fetch.icacheWaitRetryStallCycles           41                       # Number of stall cycles due to full MSHR (Cycle)
system.cpu.fetch.cacheLines                    299760                       # Number of cache lines fetched (Count)
system.cpu.fetch.icacheSquashes                  1976                       # Number of outstanding Icache misses that were squashed (Count)
system.cpu.fetch.nisnDist::samples          777702688                       # Number of instructions fetched each cycle (Total) (Count)
system.cpu.fetch.nisnDist::mean              0.129923                       # Number of instructions fetched each cycle (Total) (Count)
system.cpu.fetch.nisnDist::stdev             0.918915                       # Number of instructions fetched each cycle (Total) (Count)
system.cpu.fetch.nisnDist::underflows               0      0.00%      0.00% # Number of instructions fetched each cycle (Total) (Count)
system.cpu.fetch.nisnDist::0                759928705     97.71%     97.71% # Number of instructions fetched each cycle (Total) (Count)
system.cpu.fetch.nisnDist::1                    68259      0.01%     97.72% # Number of instructions fetched each cycle (Total) (Count)
system.cpu.fetch.nisnDist::2                  3229488      0.42%     98.14% # Number of instructions fetched each cycle (Total) (Count)
system.cpu.fetch.nisnDist::3                   136164      0.02%     98.16% # Number of instructions fetched each cycle (Total) (Count)
system.cpu.fetch.nisnDist::4                  3283609      0.42%     98.58% # Number of instructions fetched each cycle (Total) (Count)
system.cpu.fetch.nisnDist::5                    90649      0.01%     98.59% # Number of instructions fetched each cycle (Total) (Count)
system.cpu.fetch.nisnDist::6                  3559106      0.46%     99.05% # Number of instructions fetched each cycle (Total) (Count)
system.cpu.fetch.nisnDist::7                    89910      0.01%     99.06% # Number of instructions fetched each cycle (Total) (Count)
system.cpu.fetch.nisnDist::8                  7316798      0.94%    100.00% # Number of instructions fetched each cycle (Total) (Count)
system.cpu.fetch.nisnDist::overflows                0      0.00%    100.00% # Number of instructions fetched each cycle (Total) (Count)
system.cpu.fetch.nisnDist::min_value                0                       # Number of instructions fetched each cycle (Total) (Count)
system.cpu.fetch.nisnDist::max_value                8                       # Number of instructions fetched each cycle (Total) (Count)
system.cpu.fetch.nisnDist::total            777702688                       # Number of instructions fetched each cycle (Total) (Count)
system.cpu.fetch.branchRate                  0.008836                       # Number of branch fetches per cycle (Ratio)
system.cpu.fetch.rate                        0.067625                       # Number of inst fetches per cycle ((Count/Cycle))
system.cpu.icache.demandHits::cpu.inst         298216                       # number of demand (read+write) hits (Count)
system.cpu.icache.demandHits::total            298216                       # number of demand (read+write) hits (Count)
system.cpu.icache.overallHits::cpu.inst        298216                       # number of overall hits (Count)
system.cpu.icache.overallHits::total           298216                       # number of overall hits (Count)
system.cpu.icache.demandMisses::cpu.inst         1544                       # number of demand (read+write) misses (Count)
system.cpu.icache.demandMisses::total            1544                       # number of demand (read+write) misses (Count)
system.cpu.icache.overallMisses::cpu.inst         1544                       # number of overall misses (Count)
system.cpu.icache.overallMisses::total           1544                       # number of overall misses (Count)
system.cpu.icache.demandMissLatency::cpu.inst    144747998                       # number of demand (read+write) miss ticks (Tick)
system.cpu.icache.demandMissLatency::total    144747998                       # number of demand (read+write) miss ticks (Tick)
system.cpu.icache.overallMissLatency::cpu.inst    144747998                       # number of overall miss ticks (Tick)
system.cpu.icache.overallMissLatency::total    144747998                       # number of overall miss ticks (Tick)
system.cpu.icache.demandAccesses::cpu.inst       299760                       # number of demand (read+write) accesses (Count)
system.cpu.icache.demandAccesses::total        299760                       # number of demand (read+write) accesses (Count)
system.cpu.icache.overallAccesses::cpu.inst       299760                       # number of overall (read+write) accesses (Count)
system.cpu.icache.overallAccesses::total       299760                       # number of overall (read+write) accesses (Count)
system.cpu.icache.demandMissRate::cpu.inst     0.005151                       # miss rate for demand accesses (Ratio)
system.cpu.icache.demandMissRate::total      0.005151                       # miss rate for demand accesses (Ratio)
system.cpu.icache.overallMissRate::cpu.inst     0.005151                       # miss rate for overall accesses (Ratio)
system.cpu.icache.overallMissRate::total     0.005151                       # miss rate for overall accesses (Ratio)
system.cpu.icache.demandAvgMissLatency::cpu.inst 93748.703368                       # average overall miss latency in ticks ((Tick/Count))
system.cpu.icache.demandAvgMissLatency::total 93748.703368                       # average overall miss latency in ticks ((Tick/Count))
system.cpu.icache.overallAvgMissLatency::cpu.inst 93748.703368                       # average overall miss latency ((Tick/Count))
system.cpu.icache.overallAvgMissLatency::total 93748.703368                       # average overall miss latency ((Tick/Count))
system.cpu.icache.blockedCycles::no_mshrs          548                       # number of cycles access was blocked (Cycle)
system.cpu.icache.blockedCycles::no_targets            0                       # number of cycles access was blocked (Cycle)
system.cpu.icache.blockedCauses::no_mshrs           10                       # number of times access was blocked (Count)
system.cpu.icache.blockedCauses::no_targets            0                       # number of times access was blocked (Count)
system.cpu.icache.avgBlocked::no_mshrs      54.800000                       # average number of cycles each access was blocked ((Cycle/Count))
system.cpu.icache.avgBlocked::no_targets          nan                       # average number of cycles each access was blocked ((Cycle/Count))
system.cpu.icache.demandMshrHits::cpu.inst          272                       # number of demand (read+write) MSHR hits (Count)
system.cpu.icache.demandMshrHits::total           272                       # number of demand (read+write) MSHR hits (Count)
system.cpu.icache.overallMshrHits::cpu.inst          272                       # number of overall MSHR hits (Count)
system.cpu.icache.overallMshrHits::total          272                       # number of overall MSHR hits (Count)
system.cpu.icache.demandMshrMisses::cpu.inst         1272                       # number of demand (read+write) MSHR misses (Count)
system.cpu.icache.demandMshrMisses::total         1272                       # number of demand (read+write) MSHR misses (Count)
system.cpu.icache.overallMshrMisses::cpu.inst         1272                       # number of overall MSHR misses (Count)
system.cpu.icache.overallMshrMisses::total         1272                       # number of overall MSHR misses (Count)
system.cpu.icache.demandMshrMissLatency::cpu.inst    119806998                       # number of demand (read+write) MSHR miss ticks (Tick)
system.cpu.icache.demandMshrMissLatency::total    119806998                       # number of demand (read+write) MSHR miss ticks (Tick)
system.cpu.icache.overallMshrMissLatency::cpu.inst    119806998                       # number of overall MSHR miss ticks (Tick)
system.cpu.icache.overallMshrMissLatency::total    119806998                       # number of overall MSHR miss ticks (Tick)
system.cpu.icache.demandMshrMissRate::cpu.inst     0.004243                       # mshr miss ratio for demand accesses (Ratio)
system.cpu.icache.demandMshrMissRate::total     0.004243                       # mshr miss ratio for demand accesses (Ratio)
system.cpu.icache.overallMshrMissRate::cpu.inst     0.004243                       # mshr miss ratio for overall accesses (Ratio)
system.cpu.icache.overallMshrMissRate::total     0.004243                       # mshr miss ratio for overall accesses (Ratio)
system.cpu.icache.demandAvgMshrMissLatency::cpu.inst 94187.891509                       # average overall mshr miss latency ((Tick/Count))
system.cpu.icache.demandAvgMshrMissLatency::total 94187.891509                       # average overall mshr miss latency ((Tick/Count))
system.cpu.icache.overallAvgMshrMissLatency::cpu.inst 94187.891509                       # average overall mshr miss latency ((Tick/Count))
system.cpu.icache.overallAvgMshrMissLatency::total 94187.891509                       # average overall mshr miss latency ((Tick/Count))
system.cpu.icache.replacements                    775                       # number of replacements (Count)
system.cpu.icache.ReadReq.hits::cpu.inst       298216                       # number of ReadReq hits (Count)
system.cpu.icache.ReadReq.hits::total          298216                       # number of ReadReq hits (Count)
system.cpu.icache.ReadReq.misses::cpu.inst         1544                       # number of ReadReq misses (Count)
system.cpu.icache.ReadReq.misses::total          1544                       # number of ReadReq misses (Count)
system.cpu.icache.ReadReq.missLatency::cpu.inst    144747998                       # number of ReadReq miss ticks (Tick)
system.cpu.icache.ReadReq.missLatency::total    144747998                       # number of ReadReq miss ticks (Tick)
system.cpu.icache.ReadReq.accesses::cpu.inst       299760                       # number of ReadReq accesses(hits+misses) (Count)
system.cpu.icache.ReadReq.accesses::total       299760                       # number of ReadReq accesses(hits+misses) (Count)
system.cpu.icache.ReadReq.missRate::cpu.inst     0.005151                       # miss rate for ReadReq accesses (Ratio)
system.cpu.icache.ReadReq.missRate::total     0.005151                       # miss rate for ReadReq accesses (Ratio)
system.cpu.icache.ReadReq.avgMissLatency::cpu.inst 93748.703368                       # average ReadReq miss latency ((Tick/Count))
system.cpu.icache.ReadReq.avgMissLatency::total 93748.703368                       # average ReadReq miss latency ((Tick/Count))
system.cpu.icache.ReadReq.mshrHits::cpu.inst          272                       # number of ReadReq MSHR hits (Count)
system.cpu.icache.ReadReq.mshrHits::total          272                       # number of ReadReq MSHR hits (Count)
system.cpu.icache.ReadReq.mshrMisses::cpu.inst         1272                       # number of ReadReq MSHR misses (Count)
system.cpu.icache.ReadReq.mshrMisses::total         1272                       # number of ReadReq MSHR misses (Count)
system.cpu.icache.ReadReq.mshrMissLatency::cpu.inst    119806998                       # number of ReadReq MSHR miss ticks (Tick)
system.cpu.icache.ReadReq.mshrMissLatency::total    119806998                       # number of ReadReq MSHR miss ticks (Tick)
system.cpu.icache.ReadReq.mshrMissRate::cpu.inst     0.004243                       # mshr miss rate for ReadReq accesses (Ratio)
system.cpu.icache.ReadReq.mshrMissRate::total     0.004243                       # mshr miss rate for ReadReq accesses (Ratio)
system.cpu.icache.ReadReq.avgMshrMissLatency::cpu.inst 94187.891509                       # average ReadReq mshr miss latency ((Tick/Count))
system.cpu.icache.ReadReq.avgMshrMissLatency::total 94187.891509                       # average ReadReq mshr miss latency ((Tick/Count))
system.cpu.icache.power_state.pwrStateResidencyTicks::UNDEFINED 777748878000                       # Cumulative time (in ticks) in various power states (Tick)
system.cpu.icache.tags.tagsInUse           423.362647                       # Average ticks per tags in use ((Tick/Count))
system.cpu.icache.tags.totalRefs               299488                       # Total number of references to valid blocks. (Count)
system.cpu.icache.tags.sampledRefs               1272                       # Sample count of references to valid blocks. (Count)
system.cpu.icache.tags.avgRefs             235.446541                       # Average number of references to valid blocks. ((Count/Count))
system.cpu.icache.tags.warmupTick              107000                       # The tick when the warmup percentage was hit. (Tick)
system.cpu.icache.tags.occupancies::cpu.inst   423.362647                       # Average occupied blocks per tick, per requestor ((Count/Tick))
system.cpu.icache.tags.avgOccs::cpu.inst     0.826880                       # Average percentage of cache occupancy ((Ratio/Tick))
system.cpu.icache.tags.avgOccs::total        0.826880                       # Average percentage of cache occupancy ((Ratio/Tick))
system.cpu.icache.tags.occupanciesTaskId::1024          497                       # Occupied blocks per task id (Count)
system.cpu.icache.tags.ageTaskId_1024::4          497                       # Occupied blocks per task id, per block age (Count)
system.cpu.icache.tags.ratioOccsTaskId::1024     0.970703                       # Ratio of occupied blocks and all blocks, per task id (Ratio)
system.cpu.icache.tags.tagAccesses             600792                       # Number of tag accesses (Count)
system.cpu.icache.tags.dataAccesses            600792                       # Number of data accesses (Count)
system.cpu.icache.tags.power_state.pwrStateResidencyTicks::UNDEFINED 777748878000                       # Cumulative time (in ticks) in various power states (Tick)
system.cpu.iew.idleCycles                           0                       # Number of cycles IEW is idle (Cycle)
system.cpu.iew.squashCycles                     47924                       # Number of cycles IEW is squashing (Cycle)
system.cpu.iew.blockCycles                     282080                       # Number of cycles IEW is blocking (Cycle)
system.cpu.iew.unblockCycles                339070459                       # Number of cycles IEW is unblocking (Cycle)
system.cpu.iew.dispatchedInsts               98586644                       # Number of instructions dispatched to IQ (Count)
system.cpu.iew.dispSquashedInsts                  459                       # Number of squashed instructions skipped by dispatch (Count)
system.cpu.iew.dispLoadInsts                  1373292                       # Number of dispatched load instructions (Count)
system.cpu.iew.dispStoreInsts                53444451                       # Number of dispatched store instructions (Count)
system.cpu.iew.dispNonSpecInsts                   257                       # Number of dispatched non-speculative instructions (Count)
system.cpu.iew.iqFullEvents                        47                       # Number of times the IQ has become full, causing a stall (Count)
system.cpu.iew.lsqFullEvents                339114331                       # Number of times the LSQ has become full, causing a stall (Count)
system.cpu.iew.memOrderViolationEvents            334                       # Number of memory order violations (Count)
system.cpu.iew.predictedTakenIncorrect           1584                       # Number of branches that were predicted taken incorrectly (Count)
system.cpu.iew.predictedNotTakenIncorrect         2258                       # Number of branches that were predicted not taken incorrectly (Count)
system.cpu.iew.branchMispredicts                 3842                       # Number of branch mispredicts detected at execute (Count)
system.cpu.iew.instsToCommit                 98528648                       # Cumulative count of insts sent to commit (Count)
system.cpu.iew.writebackCount                97208463                       # Cumulative count of insts written-back (Count)
system.cpu.iew.producerInst                  37185028                       # Number of instructions producing a value (Count)
system.cpu.iew.consumerInst                  49396399                       # Number of instructions consuming a value (Count)
system.cpu.iew.wbRate                        0.124987                       # Insts written-back per cycle ((Count/Cycle))
system.cpu.iew.wbFanout                      0.752788                       # Average fanout of values written-back ((Count/Count))
system.cpu.interrupts.clk_domain.clock          16000                       # Clock period in ticks (Tick)
system.cpu.lsq0.forwLoads                      312932                       # Number of loads that had data forwarded from stores (Count)
system.cpu.lsq0.squashedLoads                   23168                       # Number of loads squashed (Count)
system.cpu.lsq0.ignoredResponses                  226                       # Number of memory responses ignored because the instruction is squashed (Count)
system.cpu.lsq0.memOrderViolation                 334                       # Number of memory ordering violations (Count)
system.cpu.lsq0.squashedStores                1416020                       # Number of stores squashed (Count)
system.cpu.lsq0.rescheduledLoads                   14                       # Number of loads that were rescheduled (Count)
system.cpu.lsq0.blockedByCache                     24                       # Number of times an access to memory failed due to the cache being blocked (Count)
system.cpu.lsq0.loadToUse::samples            1350124                       # Distribution of cycle latency between the first time a load is issued and its completion (Unspecified)
system.cpu.lsq0.loadToUse::mean              3.109491                       # Distribution of cycle latency between the first time a load is issued and its completion (Unspecified)
system.cpu.lsq0.loadToUse::stdev             2.248320                       # Distribution of cycle latency between the first time a load is issued and its completion (Unspecified)
system.cpu.lsq0.loadToUse::0-9                1349592     99.96%     99.96% # Distribution of cycle latency between the first time a load is issued and its completion (Unspecified)
system.cpu.lsq0.loadToUse::10-19                   15      0.00%     99.96% # Distribution of cycle latency between the first time a load is issued and its completion (Unspecified)
system.cpu.lsq0.loadToUse::20-29                   40      0.00%     99.96% # Distribution of cycle latency between the first time a load is issued and its completion (Unspecified)
system.cpu.lsq0.loadToUse::30-39                   12      0.00%     99.97% # Distribution of cycle latency between the first time a load is issued and its completion (Unspecified)
system.cpu.lsq0.loadToUse::40-49                   16      0.00%     99.97% # Distribution of cycle latency between the first time a load is issued and its completion (Unspecified)
system.cpu.lsq0.loadToUse::50-59                    8      0.00%     99.97% # Distribution of cycle latency between the first time a load is issued and its completion (Unspecified)
system.cpu.lsq0.loadToUse::60-69                   15      0.00%     99.97% # Distribution of cycle latency between the first time a load is issued and its completion (Unspecified)
system.cpu.lsq0.loadToUse::70-79                   12      0.00%     99.97% # Distribution of cycle latency between the first time a load is issued and its completion (Unspecified)
system.cpu.lsq0.loadToUse::80-89                   23      0.00%     99.97% # Distribution of cycle latency between the first time a load is issued and its completion (Unspecified)
system.cpu.lsq0.loadToUse::90-99                  120      0.01%     99.98% # Distribution of cycle latency between the first time a load is issued and its completion (Unspecified)
system.cpu.lsq0.loadToUse::100-109                 47      0.00%     99.98% # Distribution of cycle latency between the first time a load is issued and its completion (Unspecified)
system.cpu.lsq0.loadToUse::110-119                 96      0.01%     99.99% # Distribution of cycle latency between the first time a load is issued and its completion (Unspecified)
system.cpu.lsq0.loadToUse::120-129                 96      0.01%    100.00% # Distribution of cycle latency between the first time a load is issued and its completion (Unspecified)
system.cpu.lsq0.loadToUse::130-139                  4      0.00%    100.00% # Distribution of cycle latency between the first time a load is issued and its completion (Unspecified)
system.cpu.lsq0.loadToUse::140-149                  6      0.00%    100.00% # Distribution of cycle latency between the first time a load is issued and its completion (Unspecified)
system.cpu.lsq0.loadToUse::150-159                  4      0.00%    100.00% # Distribution of cycle latency between the first time a load is issued and its completion (Unspecified)
system.cpu.lsq0.loadToUse::160-169                  1      0.00%    100.00% # Distribution of cycle latency between the first time a load is issued and its completion (Unspecified)
system.cpu.lsq0.loadToUse::190-199                  3      0.00%    100.00% # Distribution of cycle latency between the first time a load is issued and its completion (Unspecified)
system.cpu.lsq0.loadToUse::220-229                  4      0.00%    100.00% # Distribution of cycle latency between the first time a load is issued and its completion (Unspecified)
system.cpu.lsq0.loadToUse::260-269                  1      0.00%    100.00% # Distribution of cycle latency between the first time a load is issued and its completion (Unspecified)
system.cpu.lsq0.loadToUse::270-279                  2      0.00%    100.00% # Distribution of cycle latency between the first time a load is issued and its completion (Unspecified)
system.cpu.lsq0.loadToUse::280-289                  1      0.00%    100.00% # Distribution of cycle latency between the first time a load is issued and its completion (Unspecified)
system.cpu.lsq0.loadToUse::overflows                6      0.00%    100.00% # Distribution of cycle latency between the first time a load is issued and its completion (Unspecified)
system.cpu.lsq0.loadToUse::min_value                2                       # Distribution of cycle latency between the first time a load is issued and its completion (Unspecified)
system.cpu.lsq0.loadToUse::max_value              427                       # Distribution of cycle latency between the first time a load is issued and its completion (Unspecified)
system.cpu.lsq0.loadToUse::total              1350124                       # Distribution of cycle latency between the first time a load is issued and its completion (Unspecified)
[...]
system.mem_ctrl.dram.bytesWritten::total    412726976                       # Number of bytes written to this memory (Byte)
system.mem_ctrl.dram.numReads::cpu.inst          1058                       # Number of read requests responded to by this memory (Count)
system.mem_ctrl.dram.numReads::cpu.data       6481910                       # Number of read requests responded to by this memory (Count)
system.mem_ctrl.dram.numReads::total          6482968                       # Number of read requests responded to by this memory (Count)
system.mem_ctrl.dram.numWrites::writebacks      6448859                       # Number of write requests responded to by this memory (Count)
system.mem_ctrl.dram.numWrites::total         6448859                       # Number of write requests responded to by this memory (Count)
system.mem_ctrl.dram.bwRead::cpu.inst           87062                       # Total read bandwidth from this memory ((Byte/Second))
system.mem_ctrl.dram.bwRead::cpu.data       533388413                       # Total read bandwidth from this memory ((Byte/Second))
system.mem_ctrl.dram.bwRead::total          533475475                       # Total read bandwidth from this memory ((Byte/Second))
system.mem_ctrl.dram.bwInstRead::cpu.inst        87062                       # Instruction read bandwidth from this memory ((Byte/Second))
system.mem_ctrl.dram.bwInstRead::total          87062                       # Instruction read bandwidth from this memory ((Byte/Second))
system.mem_ctrl.dram.bwWrite::writebacks    530668687                       # Write bandwidth from this memory ((Byte/Second))
system.mem_ctrl.dram.bwWrite::total         530668687                       # Write bandwidth from this memory ((Byte/Second))
system.mem_ctrl.dram.bwTotal::writebacks    530668687                       # Total bandwidth to/from this memory ((Byte/Second))
system.mem_ctrl.dram.bwTotal::cpu.inst          87062                       # Total bandwidth to/from this memory ((Byte/Second))
system.mem_ctrl.dram.bwTotal::cpu.data      533388413                       # Total bandwidth to/from this memory ((Byte/Second))
system.mem_ctrl.dram.bwTotal::total        1064144162                       # Total bandwidth to/from this memory ((Byte/Second))
system.mem_ctrl.dram.readBursts               6482968                       # Number of DRAM read bursts (Count)
system.mem_ctrl.dram.writeBursts              6448833                       # Number of DRAM write bursts (Count)
system.mem_ctrl.dram.perBankRdBursts::0        405125                       # Per bank write bursts (Count)
system.mem_ctrl.dram.perBankRdBursts::1        405063                       # Per bank write bursts (Count)
system.mem_ctrl.dram.perBankRdBursts::2        405057                       # Per bank write bursts (Count)
system.mem_ctrl.dram.perBankRdBursts::3        405234                       # Per bank write bursts (Count)
system.mem_ctrl.dram.perBankRdBursts::4        405270                       # Per bank write bursts (Count)
system.mem_ctrl.dram.perBankRdBursts::5        405253                       # Per bank write bursts (Count)
system.mem_ctrl.dram.perBankRdBursts::6        405190                       # Per bank write bursts (Count)
system.mem_ctrl.dram.perBankRdBursts::7        405071                       # Per bank write bursts (Count)
system.mem_ctrl.dram.perBankRdBursts::8        404886                       # Per bank write bursts (Count)
system.mem_ctrl.dram.perBankRdBursts::9        405172                       # Per bank write bursts (Count)
system.mem_ctrl.dram.perBankRdBursts::10       405267                       # Per bank write bursts (Count)
system.mem_ctrl.dram.perBankRdBursts::11       405339                       # Per bank write bursts (Count)
system.mem_ctrl.dram.perBankRdBursts::12       405130                       # Per bank write bursts (Count)
system.mem_ctrl.dram.perBankRdBursts::13       405380                       # Per bank write bursts (Count)
system.mem_ctrl.dram.perBankRdBursts::14       405266                       # Per bank write bursts (Count)
system.mem_ctrl.dram.perBankRdBursts::15       405265                       # Per bank write bursts (Count)
system.mem_ctrl.dram.perBankWrBursts::0        402944                       # Per bank write bursts (Count)
system.mem_ctrl.dram.perBankWrBursts::1        402956                       # Per bank write bursts (Count)
system.mem_ctrl.dram.perBankWrBursts::2        402972                       # Per bank write bursts (Count)
system.mem_ctrl.dram.perBankWrBursts::3        403073                       # Per bank write bursts (Count)
system.mem_ctrl.dram.perBankWrBursts::4        403088                       # Per bank write bursts (Count)
system.mem_ctrl.dram.perBankWrBursts::5        403071                       # Per bank write bursts (Count)
system.mem_ctrl.dram.perBankWrBursts::6        403090                       # Per bank write bursts (Count)
system.mem_ctrl.dram.perBankWrBursts::7        402865                       # Per bank write bursts (Count)
system.mem_ctrl.dram.perBankWrBursts::8        402800                       # Per bank write bursts (Count)
system.mem_ctrl.dram.perBankWrBursts::9        403023                       # Per bank write bursts (Count)
system.mem_ctrl.dram.perBankWrBursts::10       403144                       # Per bank write bursts (Count)
system.mem_ctrl.dram.perBankWrBursts::11       403236                       # Per bank write bursts (Count)
system.mem_ctrl.dram.perBankWrBursts::12       403044                       # Per bank write bursts (Count)
system.mem_ctrl.dram.perBankWrBursts::13       403262                       # Per bank write bursts (Count)
system.mem_ctrl.dram.perBankWrBursts::14       403139                       # Per bank write bursts (Count)
system.mem_ctrl.dram.perBankWrBursts::15       403126                       # Per bank write bursts (Count)
system.mem_ctrl.dram.totQLat              68799457250                       # Total ticks spent queuing (Tick)
system.mem_ctrl.dram.totBusLat            32414840000                       # Total ticks spent in databus transfers (Tick)
system.mem_ctrl.dram.totMemAccLat        190355107250                       # Total ticks spent from burst creation until serviced by the DRAM (Tick)
system.mem_ctrl.dram.avgQLat                 10612.34                       # Average queueing delay per DRAM burst ((Tick/Count))
system.mem_ctrl.dram.avgBusLat                5000.00                       # Average bus latency per DRAM burst ((Tick/Count))
system.mem_ctrl.dram.avgMemAccLat            29362.34                       # Average memory access latency per DRAM burst ((Tick/Count))
system.mem_ctrl.dram.readRowHits              5926276                       # Number of row buffer hits during reads (Count)
system.mem_ctrl.dram.writeRowHits             5993947                       # Number of row buffer hits during writes (Count)
system.mem_ctrl.dram.readRowHitRate             91.41                       # Row buffer hit rate for reads (Ratio)
system.mem_ctrl.dram.writeRowHitRate            92.95                       # Row buffer hit rate for writes (Ratio)
system.mem_ctrl.dram.bytesPerActivate::samples      1011577                       # Bytes accessed per row activation (Byte)
system.mem_ctrl.dram.bytesPerActivate::mean   818.162754                       # Bytes accessed per row activation (Byte)
system.mem_ctrl.dram.bytesPerActivate::gmean   646.692076                       # Bytes accessed per row activation (Byte)
system.mem_ctrl.dram.bytesPerActivate::stdev   346.706766                       # Bytes accessed per row activation (Byte)
system.mem_ctrl.dram.bytesPerActivate::0-127        88984      8.80%      8.80% # Bytes accessed per row activation (Byte)
system.mem_ctrl.dram.bytesPerActivate::128-255        58861      5.82%     14.62% # Bytes accessed per row activation (Byte)
system.mem_ctrl.dram.bytesPerActivate::256-383        27076      2.68%     17.29% # Bytes accessed per row activation (Byte)
system.mem_ctrl.dram.bytesPerActivate::384-511        26112      2.58%     19.87% # Bytes accessed per row activation (Byte)
system.mem_ctrl.dram.bytesPerActivate::512-639        26621      2.63%     22.50% # Bytes accessed per row activation (Byte)
system.mem_ctrl.dram.bytesPerActivate::640-767        26291      2.60%     25.10% # Bytes accessed per row activation (Byte)
system.mem_ctrl.dram.bytesPerActivate::768-895        27657      2.73%     27.84% # Bytes accessed per row activation (Byte)
system.mem_ctrl.dram.bytesPerActivate::896-1023        71560      7.07%     34.91% # Bytes accessed per row activation (Byte)
system.mem_ctrl.dram.bytesPerActivate::1024-1151       658415     65.09%    100.00% # Bytes accessed per row activation (Byte)
system.mem_ctrl.dram.bytesPerActivate::total      1011577                       # Bytes accessed per row activation (Byte)
system.mem_ctrl.dram.bytesRead              414909952                       # Total bytes read (Byte)
system.mem_ctrl.dram.bytesWritten           412725312                       # Total bytes written (Byte)
system.mem_ctrl.dram.avgRdBW               533.475475                       # Average DRAM read bandwidth in MiBytes/s ((Byte/Second))
system.mem_ctrl.dram.avgWrBW               530.666548                       # Average DRAM write bandwidth in MiBytes/s ((Byte/Second))
system.mem_ctrl.dram.peakBW                  12800.00                       # Theoretical peak bandwidth in MiByte/s ((Byte/Second))
system.mem_ctrl.dram.busUtil                     8.31                       # Data bus utilization in percentage (Ratio)
system.mem_ctrl.dram.busUtilRead                 4.17                       # Data bus utilization in percentage for reads (Ratio)
system.mem_ctrl.dram.busUtilWrite                4.15                       # Data bus utilization in percentage for writes (Ratio)
system.mem_ctrl.dram.pageHitRate                92.18                       # Row buffer hit rate, read and write combined (Ratio)
system.mem_ctrl.dram.power_state.pwrStateResidencyTicks::UNDEFINED 777748878000                       # Cumulative time (in ticks) in various power states (Tick)
system.mem_ctrl.dram.rank0.actEnergy       3548180160                       # Energy for activate commands per rank (pJ) (Joule)
system.mem_ctrl.dram.rank0.preEnergy       1885902480                       # Energy for precharge commands per rank (pJ) (Joule)
system.mem_ctrl.dram.rank0.readEnergy     23142617820                       # Energy for read commands per rank (pJ) (Joule)
system.mem_ctrl.dram.rank0.writeEnergy    16829587980                       # Energy for write commands per rank (pJ) (Joule)
system.mem_ctrl.dram.rank0.refreshEnergy 61394545680.000008                       # Energy for refresh commands per rank (pJ) (Joule)
system.mem_ctrl.dram.rank0.actBackEnergy 181540640070                       # Energy for active background per rank (pJ) (Joule)
system.mem_ctrl.dram.rank0.preBackEnergy 145779240960                       # Energy for precharge background per rank (pJ) (Joule)
system.mem_ctrl.dram.rank0.actPowerDownEnergy            0                       # Energy for active power-down per rank (pJ) (Joule)
system.mem_ctrl.dram.rank0.prePowerDownEnergy            0                       # Energy for precharge power-down per rank (pJ) (Joule)
system.mem_ctrl.dram.rank0.selfRefreshEnergy            0                       # Energy for self refresh per rank (pJ) (Joule)
system.mem_ctrl.dram.rank0.totalEnergy   434120715150                       # Total energy per rank (pJ) (Joule)
system.mem_ctrl.dram.rank0.averagePower    558.175945                       # Core power per rank (mW) (Watt)
system.mem_ctrl.dram.rank0.totalIdleTime            0                       # Total Idle time Per DRAM Rank (Tick)
system.mem_ctrl.dram.rank0.pwrStateTime::IDLE 373042226500                       # Time in different power states (Tick)
system.mem_ctrl.dram.rank0.pwrStateTime::REF  25970620000                       # Time in different power states (Tick)
system.mem_ctrl.dram.rank0.pwrStateTime::SREF            0                       # Time in different power states (Tick)
system.mem_ctrl.dram.rank0.pwrStateTime::PRE_PDN            0                       # Time in different power states (Tick)
system.mem_ctrl.dram.rank0.pwrStateTime::ACT 378736031500                       # Time in different power states (Tick)
system.mem_ctrl.dram.rank0.pwrStateTime::ACT_PDN            0                       # Time in different power states (Tick)
system.mem_ctrl.dram.rank1.actEnergy       3674486760                       # Energy for activate commands per rank (pJ) (Joule)
system.mem_ctrl.dram.rank1.preEnergy       1953032235                       # Energy for precharge commands per rank (pJ) (Joule)
system.mem_ctrl.dram.rank1.readEnergy     23145773700                       # Energy for read commands per rank (pJ) (Joule)
system.mem_ctrl.dram.rank1.writeEnergy    16833320280                       # Energy for write commands per rank (pJ) (Joule)
system.mem_ctrl.dram.rank1.refreshEnergy 61394545680.000008                       # Energy for refresh commands per rank (pJ) (Joule)
system.mem_ctrl.dram.rank1.actBackEnergy 181666236150                       # Energy for active background per rank (pJ) (Joule)
system.mem_ctrl.dram.rank1.preBackEnergy 145673475840                       # Energy for precharge background per rank (pJ) (Joule)
system.mem_ctrl.dram.rank1.actPowerDownEnergy            0                       # Energy for active power-down per rank (pJ) (Joule)
system.mem_ctrl.dram.rank1.prePowerDownEnergy            0                       # Energy for precharge power-down per rank (pJ) (Joule)
system.mem_ctrl.dram.rank1.selfRefreshEnergy            0                       # Energy for self refresh per rank (pJ) (Joule)
system.mem_ctrl.dram.rank1.totalEnergy   434340870645                       # Total energy per rank (pJ) (Joule)
system.mem_ctrl.dram.rank1.averagePower    558.459013                       # Core power per rank (mW) (Watt)
system.mem_ctrl.dram.rank1.totalIdleTime            0                       # Total Idle time Per DRAM Rank (Tick)
system.mem_ctrl.dram.rank1.pwrStateTime::IDLE 372680965000                       # Time in different power states (Tick)
system.mem_ctrl.dram.rank1.pwrStateTime::REF  25970620000                       # Time in different power states (Tick)
system.mem_ctrl.dram.rank1.pwrStateTime::SREF            0                       # Time in different power states (Tick)
system.mem_ctrl.dram.rank1.pwrStateTime::PRE_PDN            0                       # Time in different power states (Tick)
system.mem_ctrl.dram.rank1.pwrStateTime::ACT 379097293000                       # Time in different power states (Tick)
system.mem_ctrl.dram.rank1.pwrStateTime::ACT_PDN            0                       # Time in different power states (Tick)
system.mem_ctrl.power_state.pwrStateResidencyTicks::UNDEFINED 777748878000                       # Cumulative time (in ticks) in various power states (Tick)
system.membus.transDist::ReadResp                1425                       # Transaction distribution (Count)
system.membus.transDist::WritebackDirty       6448859                       # Transaction distribution (Count)
system.membus.transDist::CleanEvict               844                       # Transaction distribution (Count)
system.membus.transDist::ReadExReq            6481543                       # Transaction distribution (Count)
system.membus.transDist::ReadExResp           6481543                       # Transaction distribution (Count)
system.membus.transDist::ReadSharedReq           1425                       # Transaction distribution (Count)
system.membus.pktCount_system.l2cache.mem_side_port::system.mem_ctrl.port     19415639                       # Packet count per connected requestor and responder (Count)
system.membus.pktCount_system.l2cache.mem_side_port::total     19415639                       # Packet count per connected requestor and responder (Count)
system.membus.pktCount::total                19415639                       # Packet count per connected requestor and responder (Count)
system.membus.pktSize_system.l2cache.mem_side_port::system.mem_ctrl.port    827636928                       # Cumulative packet size per connected requestor and responder (Byte)
system.membus.pktSize_system.l2cache.mem_side_port::total    827636928                       # Cumulative packet size per connected requestor and responder (Byte)
system.membus.pktSize::total                827636928                       # Cumulative packet size per connected requestor and responder (Byte)
system.membus.snoops                                0                       # Total snoops (Count)
system.membus.snoopTraffic                          0                       # Total snoop traffic (Byte)
system.membus.snoopFanout::samples            6482968                       # Request fanout histogram (Count)
system.membus.snoopFanout::mean                     0                       # Request fanout histogram (Count)
system.membus.snoopFanout::stdev                    0                       # Request fanout histogram (Count)
system.membus.snoopFanout::underflows               0      0.00%      0.00% # Request fanout histogram (Count)
system.membus.snoopFanout::0                  6482968    100.00%    100.00% # Request fanout histogram (Count)
system.membus.snoopFanout::1                        0      0.00%    100.00% # Request fanout histogram (Count)
system.membus.snoopFanout::overflows                0      0.00%    100.00% # Request fanout histogram (Count)
system.membus.snoopFanout::min_value                0                       # Request fanout histogram (Count)
system.membus.snoopFanout::max_value                0                       # Request fanout histogram (Count)
system.membus.snoopFanout::total              6482968                       # Request fanout histogram (Count)
system.membus.power_state.pwrStateResidencyTicks::UNDEFINED 777748878000                       # Cumulative time (in ticks) in various power states (Tick)
system.membus.reqLayer2.occupancy         38728107000                       # Layer occupancy (ticks) (Tick)
system.membus.reqLayer2.utilization               0.0                       # Layer utilization (Ratio)
system.membus.respLayer0.occupancy        34113405000                       # Layer occupancy (ticks) (Tick)
system.membus.respLayer0.utilization              0.0                       # Layer utilization (Ratio)
system.membus.snoop_filter.totRequests       12932671                       # Total number of requests made to the snoop filter. (Count)
system.membus.snoop_filter.hitSingleRequests      6449703                       # Number of requests hitting in the snoop filter with a single holder of the requested data. (Count)
system.membus.snoop_filter.hitMultiRequests            0                       # Number of requests hitting in the snoop filter with multiple (>1) holders of the requested data. (Count)
system.membus.snoop_filter.totSnoops                0                       # Total number of snoops made to the snoop filter. (Count)
system.membus.snoop_filter.hitSingleSnoops            0                       # Number of snoops hitting in the snoop filter with a single holder of the requested data. (Count)
system.membus.snoop_filter.hitMultiSnoops            0                       # Number of snoops hitting in the snoop filter with multiple (>1) holders of the requested data. (Count)
system.workload.inst.arm                            0                       # number of arm instructions executed (Count)
system.workload.inst.quiesce                        0                       # number of quiesce instructions executed (Count)

---------- End Simulation Statistics   ----------
