
---------- Begin Simulation Statistics ----------
simSeconds                                   0.777763                       # Number of seconds simulated (Second)
simTicks                                 777762590000                       # Number of ticks simulated (Tick)
finalTick                                777762590000                       # Number of ticks from beginning of simulation (restored from checkpoints and never reset) (Tick)
simFreq                                  1000000000000                       # The number of ticks per simulated second ((Tick/Second))
hostSeconds                                    815.77                       # Real time elapsed on the host (Second)
hostTickRate                                953403466                       # The number of ticks simulated per host second (ticks/s) ((Tick/Second))
hostMemory                                    8536660                       # Number of bytes of host memory used (Byte)
simInsts                                     50000000                       # Number of instructions simulated (Count)
simOps                                       95981348                       # Number of ops (including micro ops) simulated (Count)
hostInstRate                                    61291                       # Simulator instruction rate (inst/s) ((Count/Second))
hostOpRate                                     117657                       # Simulator op (including micro ops) rate (op/s) ((Count/Second))
system.clk_domain.clock                          1000                       # Clock period in ticks (Tick)
system.clk_domain.voltage_domain.voltage            1                       # Voltage in Volts (Volt)
system.cpu.numCycles                        777762591                       # Number of cpu cycles simulated (Cycle)
system.cpu.numWorkItemsStarted                      0                       # Number of work items this cpu started (Count)
system.cpu.numWorkItemsCompleted                    0                       # Number of work items this cpu completed (Count)
system.cpu.instsAdded                        98633361                       # Number of instructions added to the IQ (excludes non-spec) (Count)
system.cpu.nonSpecInstsAdded                      841                       # Number of non-speculative instructions added to the IQ (Count)
system.cpu.instsIssued                       98567752                       # Number of instructions issued (Count)
system.cpu.squashedInstsIssued                    600                       # Number of squashed instructions issued (Count)
system.cpu.squashedInstsExamined              2652852                       # Number of squashed instructions iterated over during squash; mainly for profiling (Count)
system.cpu.squashedOperandsExamined           5621729                       # Number of squashed operands that are examined and possibly removed from graph (Count)
system.cpu.squashedNonSpecRemoved                 793                       # Number of squashed non-spec instructions that were removed (Count)
system.cpu.numIssuedDist::samples           777715438                       # Number of insts issued each cycle (Count)
system.cpu.numIssuedDist::mean               0.126740                       # Number of insts issued each cycle (Count)
system.cpu.numIssuedDist::stdev              0.487749                       # Number of insts issued each cycle (Count)
system.cpu.numIssuedDist::underflows                0      0.00%      0.00% # Number of insts issued each cycle (Count)
system.cpu.numIssuedDist::0                 703930998     90.51%     90.51% # Number of insts issued each cycle (Count)
system.cpu.numIssuedDist::1                  63523228      8.17%     98.68% # Number of insts issued each cycle (Count)
system.cpu.numIssuedDist::2                   2331983      0.30%     98.98% # Number of insts issued each cycle (Count)
system.cpu.numIssuedDist::3                   3215599      0.41%     99.39% # Number of insts issued each cycle (Count)
system.cpu.numIssuedDist::4                   3846388      0.49%     99.89% # Number of insts issued each cycle (Count)
system.cpu.numIssuedDist::5                    361450      0.05%     99.93% # Number of insts issued each cycle (Count)
system.cpu.numIssuedDist::6                    175008      0.02%     99.96% # Number of insts issued each cycle (Count)
system.cpu.numIssuedDist::7                    155361      0.02%     99.98% # Number of insts issued each cycle (Count)
system.cpu.numIssuedDist::8                    175423      0.02%    100.00% # Number of insts issued each cycle (Count)
system.cpu.numIssuedDist::overflows                 0      0.00%    100.00% # Number of insts issued each cycle (Count)
system.cpu.numIssuedDist::min_value                 0                       # Number of insts issued each cycle (Count)
system.cpu.numIssuedDist::max_value                 8                       # Number of insts issued each cycle (Count)
system.cpu.numIssuedDist::total             777715438                       # Number of insts issued each cycle (Count)
system.cpu.statFuBusy::No_OpClass                   0      0.00%      0.00% # attempts to use FU when none available (Count)
system.cpu.statFuBusy::IntAlu                   10711      4.17%      4.17% # attempts to use FU when none available (Count)
system.cpu.statFuBusy::IntMult                      0      0.00%      4.17% # attempts to use FU when none available (Count)
system.cpu.statFuBusy::IntDiv                       0      0.00%      4.17% # attempts to use FU when none available (Count)
system.cpu.statFuBusy::FloatAdd                     0      0.00%      4.17% # attempts to use FU when none available (Count)
system.cpu.statFuBusy::FloatCmp                     0      0.00%      4.17% # attempts to use FU when none available (Count)
system.cpu.statFuBusy::FloatCvt                     0      0.00%      4.17% # attempts to use FU when none available (Count)
system.cpu.statFuBusy::FloatMult                    0      0.00%      4.17% # attempts to use FU when none available (Count)
system.cpu.statFuBusy::FloatMultAcc                 0      0.00%      4.17% # attempts to use FU when none available (Count)
system.cpu.statFuBusy::FloatDiv                     0      0.00%      4.17% # attempts to use FU when none available (Count)
system.cpu.statFuBusy::FloatMisc                    0      0.00%      4.17% # attempts to use FU when none available (Count)
system.cpu.statFuBusy::FloatSqrt                    0      0.00%      4.17% # attempts to use FU when none available (Count)
system.cpu.statFuBusy::SimdAdd                      0      0.00%      4.17% # attempts to use FU when none available (Count)
system.cpu.statFuBusy::SimdAddAcc                   0      0.00%      4.17% # attempts to use FU when none available (Count)
system.cpu.statFuBusy::SimdAlu                     14      0.01%      4.17% # attempts to use FU when none available (Count)
system.cpu.statFuBusy::SimdCmp                      0      0.00%      4.17% # attempts to use FU when none available (Count)
system.cpu.statFuBusy::SimdCvt                      8      0.00%      4.18% # attempts to use FU when none available (Count)
system.cpu.statFuBusy::SimdMisc                     5      0.00%      4.18% # attempts to use FU when none available (Count)
system.cpu.statFuBusy::SimdMult                     0      0.00%      4.18% # attempts to use FU when none available (Count)
system.cpu.statFuBusy::SimdMultAcc                  0      0.00%      4.18% # attempts to use FU when none available (Count)
system.cpu.statFuBusy::SimdShift                    0      0.00%      4.18% # attempts to use FU when none available (Count)
system.cpu.statFuBusy::SimdShiftAcc                 0      0.00%      4.18% # attempts to use FU when none available (Count)
system.cpu.statFuBusy::SimdDiv                      0      0.00%      4.18% # attempts to use FU when none available (Count)
system.cpu.statFuBusy::SimdSqrt                     0      0.00%      4.18% # attempts to use FU when none available (Count)
system.cpu.statFuBusy::SimdFloatAdd                 0      0.00%      4.18% # attempts to use FU when none available (Count)
system.cpu.statFuBusy::SimdFloatAlu                 0      0.00%      4.18% # attempts to use FU when none available (Count)
system.cpu.statFuBusy::SimdFloatCmp                 0      0.00%      4.18% # attempts to use FU when none available (Count)
system.cpu.statFuBusy::SimdFloatCvt                 0      0.00%      4.18% # attempts to use FU when none available (Count)
system.cpu.statFuBusy::SimdFloatDiv                 0      0.00%      4.18% # attempts to use FU when none available (Count)
system.cpu.statFuBusy::SimdFloatMisc                0      0.00%      4.18% # attempts to use FU when none available (Count)
system.cpu.statFuBusy::SimdFloatMult                0      0.00%      4.18% # attempts to use FU when none available (Count)
system.cpu.statFuBusy::SimdFloatMultAcc             0      0.00%      4.18% # attempts to use FU when none available (Count)
system.cpu.statFuBusy::SimdFloatSqrt                0      0.00%      4.18% # attempts to use FU when none available (Count)
system.cpu.statFuBusy::SimdReduceAdd                0      0.00%      4.18% # attempts to use FU when none available (Count)
system.cpu.statFuBusy::SimdReduceAlu                0      0.00%      4.18% # attempts to use FU when none available (Count)
system.cpu.statFuBusy::SimdReduceCmp                0      0.00%      4.18% # attempts to use FU when none available (Count)
system.cpu.statFuBusy::SimdFloatReduceAdd            0      0.00%      4.18% # attempts to use FU when none available (Count)
system.cpu.statFuBusy::SimdFloatReduceCmp            0      0.00%      4.18% # attempts to use FU when none available (Count)
system.cpu.statFuBusy::SimdAes                      0      0.00%      4.18% # attempts to use FU when none available (Count)
system.cpu.statFuBusy::SimdAesMix                   0      0.00%      4.18% # attempts to use FU when none available (Count)
system.cpu.statFuBusy::SimdSha1Hash                 0      0.00%      4.18% # attempts to use FU when none available (Count)
system.cpu.statFuBusy::SimdSha1Hash2                0      0.00%      4.18% # attempts to use FU when none available (Count)
system.cpu.statFuBusy::SimdSha256Hash               0      0.00%      4.18% # attempts to use FU when none available (Count)
system.cpu.statFuBusy::SimdSha256Hash2              0      0.00%      4.18% # attempts to use FU when none available (Count)
system.cpu.statFuBusy::SimdShaSigma2                0      0.00%      4.18% # attempts to use FU when none available (Count)
system.cpu.statFuBusy::SimdShaSigma3                0      0.00%      4.18% # attempts to use FU when none available (Count)
system.cpu.statFuBusy::SimdPredAlu                  0      0.00%      4.18% # attempts to use FU when none available (Count)
system.cpu.statFuBusy::MemRead                  26304     10.24%     14.41% # attempts to use FU when none available (Count)
system.cpu.statFuBusy::MemWrite                   154      0.06%     14.47% # attempts to use FU when none available (Count)
system.cpu.statFuBusy::FloatMemRead                11      0.00%     14.48% # attempts to use FU when none available (Count)
system.cpu.statFuBusy::FloatMemWrite           219772     85.52%    100.00% # attempts to use FU when none available (Count)
system.cpu.statFuBusy::IprAccess                    0      0.00%    100.00% # attempts to use FU when none available (Count)
system.cpu.statFuBusy::InstPrefetch                 0      0.00%    100.00% # attempts to use FU when none available (Count)
system.cpu.statIssuedInstType_0::No_OpClass          931      0.00%      0.00% # Number of instructions issued per FU type, per thread (Count)
system.cpu.statIssuedInstType_0::IntAlu      43748120     44.38%     44.38% # Number of instructions issued per FU type, per thread (Count)
system.cpu.statIssuedInstType_0::IntMult          801      0.00%     44.39% # Number of instructions issued per FU type, per thread (Count)
system.cpu.statIssuedInstType_0::IntDiv           179      0.00%     44.39% # Number of instructions issued per FU type, per thread (Count)
system.cpu.statIssuedInstType_0::FloatAdd          202      0.00%     44.39% # Number of instructions issued per FU type, per thread (Count)
system.cpu.statIssuedInstType_0::FloatCmp            0      0.00%     44.39% # Number of instructions issued per FU type, per thread (Count)
system.cpu.statIssuedInstType_0::FloatCvt            0      0.00%     44.39% # Number of instructions issued per FU type, per thread (Count)
system.cpu.statIssuedInstType_0::FloatMult            0      0.00%     44.39% # Number of instructions issued per FU type, per thread (Count)
system.cpu.statIssuedInstType_0::FloatMultAcc            0      0.00%     44.39% # Number of instructions issued per FU type, per thread (Count)
system.cpu.statIssuedInstType_0::FloatDiv            0      0.00%     44.39% # Number of instructions issued per FU type, per thread (Count)
system.cpu.statIssuedInstType_0::FloatMisc            0      0.00%     44.39% # Number of instructions issued per FU type, per thread (Count)
system.cpu.statIssuedInstType_0::FloatSqrt            0      0.00%     44.39% # Number of instructions issued per FU type, per thread (Count)
system.cpu.statIssuedInstType_0::SimdAdd            0      0.00%     44.39% # Number of instructions issued per FU type, per thread (Count)
system.cpu.statIssuedInstType_0::SimdAddAcc            0      0.00%     44.39% # Number of instructions issued per FU type, per thread (Count)
system.cpu.statIssuedInstType_0::SimdAlu          818      0.00%     44.39% # Number of instructions issued per FU type, per thread (Count)
system.cpu.statIssuedInstType_0::SimdCmp           12      0.00%     44.39% # Number of instructions issued per FU type, per thread (Count)
system.cpu.statIssuedInstType_0::SimdCvt          817      0.00%     44.39% # Number of instructions issued per FU type, per thread (Count)
system.cpu.statIssuedInstType_0::SimdMisc         1885      0.00%     44.39% # Number of instructions issued per FU type, per thread (Count)
system.cpu.statIssuedInstType_0::SimdMult            0      0.00%     44.39% # Number of instructions issued per FU type, per thread (Count)
system.cpu.statIssuedInstType_0::SimdMultAcc            0      0.00%     44.39% # Number of instructions issued per FU type, per thread (Count)
system.cpu.statIssuedInstType_0::SimdShift            0      0.00%     44.39% # Number of instructions issued per FU type, per thread (Count)
system.cpu.statIssuedInstType_0::SimdShiftAcc            0      0.00%     44.39% # Number of instructions issued per FU type, per thread (Count)
system.cpu.statIssuedInstType_0::SimdDiv            0      0.00%     44.39% # Number of instructions issued per FU type, per thread (Count)
system.cpu.statIssuedInstType_0::SimdSqrt            0      0.00%     44.39% # Number of instructions issued per FU type, per thread (Count)
system.cpu.statIssuedInstType_0::SimdFloatAdd            1      0.00%     44.39% # Number of instructions issued per FU type, per thread (Count)
system.cpu.statIssuedInstType_0::SimdFloatAlu            0      0.00%     44.39% # Number of instructions issued per FU type, per thread (Count)
system.cpu.statIssuedInstType_0::SimdFloatCmp            0      0.00%     44.39% # Number of instructions issued per FU type, per thread (Count)
system.cpu.statIssuedInstType_0::SimdFloatCvt            2      0.00%     44.39% # Number of instructions issued per FU type, per thread (Count)
system.cpu.statIssuedInstType_0::SimdFloatDiv            0      0.00%     44.39% # Number of instructions issued per FU type, per thread (Count)
system.cpu.statIssuedInstType_0::SimdFloatMisc            0      0.00%     44.39% # Number of instructions issued per FU type, per thread (Count)
system.cpu.statIssuedInstType_0::SimdFloatMult            0      0.00%     44.39% # Number of instructions issued per FU type, per thread (Count)
system.cpu.statIssuedInstType_0::SimdFloatMultAcc            0      0.00%     44.39% # Number of instructions issued per FU type, per thread (Count)
system.cpu.statIssuedInstType_0::SimdFloatSqrt            0      0.00%     44.39% # Number of instructions issued per FU type, per thread (Count)
system.cpu.statIssuedInstType_0::SimdReduceAdd            0      0.00%     44.39% # Number of instructions issued per FU type, per thread (Count)
system.cpu.statIssuedInstType_0::SimdReduceAlu            0      0.00%     44.39% # Number of instructions issued per FU type, per thread (Count)
system.cpu.statIssuedInstType_0::SimdReduceCmp            0      0.00%     44.39% # Number of instructions issued per FU type, per thread (Count)
system.cpu.statIssuedInstType_0::SimdFloatReduceAdd            0      0.00%     44.39% # Number of instructions issued per FU type, per thread (Count)
system.cpu.statIssuedInstType_0::SimdFloatReduceCmp            0      0.00%     44.39% # Number of instructions issued per FU type, per thread (Count)
system.cpu.statIssuedInstType_0::SimdAes            0      0.00%     44.39% # Number of instructions issued per FU type, per thread (Count)
system.cpu.statIssuedInstType_0::SimdAesMix            0      0.00%     44.39% # Number of instructions issued per FU type, per thread (Count)
system.cpu.statIssuedInstType_0::SimdSha1Hash            0      0.00%     44.39% # Number of instructions issued per FU type, per thread (Count)
system.cpu.statIssuedInstType_0::SimdSha1Hash2            0      0.00%     44.39% # Number of instructions issued per FU type, per thread (Count)
system.cpu.statIssuedInstType_0::SimdSha256Hash            0      0.00%     44.39% # Number of instructions issued per FU type, per thread (Count)
system.cpu.statIssuedInstType_0::SimdSha256Hash2            0      0.00%     44.39% # Number of instructions issued per FU type, per thread (Count)
system.cpu.statIssuedInstType_0::SimdShaSigma2            0      0.00%     44.39% # Number of instructions issued per FU type, per thread (Count)
system.cpu.statIssuedInstType_0::SimdShaSigma3            0      0.00%     44.39% # Number of instructions issued per FU type, per thread (Count)
system.cpu.statIssuedInstType_0::SimdPredAlu            0      0.00%     44.39% # Number of instructions issued per FU type, per thread (Count)
system.cpu.statIssuedInstType_0::MemRead      1370474      1.39%     45.78% # Number of instructions issued per FU type, per thread (Count)
system.cpu.statIssuedInstType_0::MemWrite       207953      0.21%     45.99% # Number of instructions issued per FU type, per thread (Count)
system.cpu.statIssuedInstType_0::FloatMemRead          501      0.00%     45.99% # Number of instructions issued per FU type, per thread (Count)
system.cpu.statIssuedInstType_0::FloatMemWrite     53235056     54.01%    100.00% # Number of instructions issued per FU type, per thread (Count)
system.cpu.statIssuedInstType_0::IprAccess            0      0.00%    100.00% # Number of instructions issued per FU type, per thread (Count)
system.cpu.statIssuedInstType_0::InstPrefetch            0      0.00%    100.00% # Number of instructions issued per FU type, per thread (Count)
system.cpu.statIssuedInstType_0::total       98567752                       # Number of instructions issued per FU type, per thread (Count)
system.cpu.issueRate                         0.126732                       # Inst issue rate ((Count/Cycle))
system.cpu.fuBusy                              256979                       # FU busy when requested (Count)
system.cpu.fuBusyRate                        0.002607                       # FU busy rate (busy events/executed inst) ((Count/Count))
system.cpu.intInstQueueReads                868408988                       # Number of integer instruction queue reads (Count)
system.cpu.intInstQueueWrites                46640929                       # Number of integer instruction queue writes (Count)
system.cpu.intInstQueueWakeupAccesses        45310863                       # Number of integer instruction queue wakeup accesses (Count)
system.cpu.fpInstQueueReads                 106699532                       # Number of floating instruction queue reads (Count)
system.cpu.fpInstQueueWrites                 54646455                       # Number of floating instruction queue writes (Count)
system.cpu.fpInstQueueWakeupAccesses         51921607                       # Number of floating instruction queue wakeup accesses (Count)
system.cpu.vecInstQueueReads                        0                       # Number of vector instruction queue reads (Count)
system.cpu.vecInstQueueWrites                       0                       # Number of vector instruction queue writes (Count)
system.cpu.vecInstQueueWakeupAccesses               0                       # Number of vector instruction queue wakeup accesses (Count)
system.cpu.intAluAccesses                    45364136                       # Number of integer alu accesses (Count)
system.cpu.fpAluAccesses                     53459664                       # Number of floating point alu accesses (Count)
system.cpu.vecAluAccesses                           0                       # Number of vector alu accesses (Count)
system.cpu.numInsts                          98555708                       # Number of executed instructions (Count)
system.cpu.numLoadInsts                       1367586                       # Number of load instructions executed (Count)
system.cpu.numSquashedInsts                     12043                       # Number of squashed instructions skipped in execute (Count)
system.cpu.numSwp                                   0                       # Number of swp insts executed (Count)
system.cpu.numNop                                   0                       # Number of nop insts executed (Count)
system.cpu.numRefs                           54809308                       # Number of memory reference insts executed (Count)
system.cpu.numBranches                        6727616                       # Number of branches executed (Count)
system.cpu.numStoreInsts                     53441722                       # Number of stores executed (Count)
system.cpu.numRate                           0.126717                       # Inst execution rate ((Count/Cycle))
system.cpu.timesIdled                             718                       # Number of times that the entire CPU went into an idle state and unscheduled itself (Count)
system.cpu.idleCycles                           47153                       # Total number of cycles that the CPU has spent unscheduled due to idling (Cycle)
system.cpu.committedInsts                    50000000                       # Number of Instructions Simulated (Count)
system.cpu.committedOps                      95981348                       # Number of Ops (including micro ops) Simulated (Count)
system.cpu.cpi                              15.555252                       # CPI: Cycles Per Instruction ((Cycle/Count))
system.cpu.totalCpi                         15.555252                       # CPI: Total CPI of All Threads ((Cycle/Count))
system.cpu.ipc                               0.064287                       # IPC: Instructions Per Cycle ((Count/Cycle))
system.cpu.totalIpc                          0.064287                       # IPC: Total IPC of All Threads ((Count/Cycle))
system.cpu.intRegfileReads                  102267397                       # Number of integer regfile reads (Count)
system.cpu.intRegfileWrites                  31556695                       # Number of integer regfile writes (Count)
system.cpu.fpRegfileReads                    53243794                       # Number of floating regfile reads (Count)
system.cpu.fpRegfileWrites                       4302                       # Number of floating regfile writes (Count)
system.cpu.ccRegfileReads                    35405539                       # number of cc regfile reads (Count)
system.cpu.ccRegfileWrites                   30036271                       # number of cc regfile writes (Count)
system.cpu.miscRegfileReads                  68281687                       # number of misc regfile reads (Count)
system.cpu.MemDepUnit__0.insertedLoads        1381614                       # Number of loads inserted to the mem dependence unit. (Count)
system.cpu.MemDepUnit__0.insertedStores      53450383                       # Number of stores inserted to the mem dependence unit. (Count)
system.cpu.MemDepUnit__0.conflictingLoads       187508                       # Number of conflicting loads. (Count)
system.cpu.MemDepUnit__0.conflictingStores        35226                       # Number of conflicting stores. (Count)
system.cpu.MemDepUnit__1.insertedLoads              0                       # Number of loads inserted to the mem dependence unit. (Count)
system.cpu.MemDepUnit__1.insertedStores             0                       # Number of stores inserted to the mem dependence unit. (Count)
system.cpu.MemDepUnit__1.conflictingLoads            0                       # Number of conflicting loads. (Count)
system.cpu.MemDepUnit__1.conflictingStores            0                       # Number of conflicting stores. (Count)
system.cpu.MemDepUnit__2.insertedLoads              0                       # Number of loads inserted to the mem dependence unit. (Count)
system.cpu.MemDepUnit__2.insertedStores             0                       # Number of stores inserted to the mem dependence unit. (Count)
system.cpu.MemDepUnit__2.conflictingLoads            0                       # Number of conflicting loads. (Count)
system.cpu.MemDepUnit__2.conflictingStores            0                       # Number of conflicting stores. (Count)
system.cpu.MemDepUnit__3.insertedLoads              0                       # Number of loads inserted to the mem dependence unit. (Count)
system.cpu.MemDepUnit__3.insertedStores             0                       # Number of stores inserted to the mem dependence unit. (Count)
system.cpu.MemDepUnit__3.conflictingLoads            0                       # Number of conflicting loads. (Count)
system.cpu.MemDepUnit__3.conflictingStores            0                       # Number of conflicting stores. (Count)
system.cpu.branchPred.lookups                 6878611                       # Number of BP lookups (Count)
system.cpu.branchPred.condPredicted           6860054                       # Number of conditional branches predicted (Count)
system.cpu.branchPred.condIncorrect              6583                       # Number of conditional branches incorrect (Count)
system.cpu.branchPred.BTBLookups              6859006                       # Number of BTB lookups (Count)
system.cpu.branchPred.BTBHits                 6849401                       # Number of BTB hits (Count)
system.cpu.branchPred.BTBHitRatio            0.998600                       # BTB Hit Ratio (Ratio)
system.cpu.branchPred.RASUsed                    5430                       # Number of times the RAS was used to get a target. (Count)
system.cpu.branchPred.RASIncorrect                  8                       # Number of incorrect RAS predictions. (Count)
system.cpu.branchPred.indirectLookups            1645                       # Number of indirect predictor lookups. (Count)
system.cpu.branchPred.indirectHits                619                       # Number of indirect target hits. (Count)
system.cpu.branchPred.indirectMisses             1026                       # Number of indirect misses. (Count)
system.cpu.branchPred.indirectMispredicted          173                       # Number of mispredicted indirect branches. (Count)
system.cpu.commit.commitSquashedInsts         2340597                       # The number of squashed insts skipped by commit (Count)
system.cpu.commit.commitNonSpecStalls              48                       # The number of times commit has been forced to stall to communicate backwards (Count)
system.cpu.commit.branchMispredicts              5111                       # The number of times a branch was mispredicted (Count)
system.cpu.commit.numCommittedDist::samples    777381118                       # Number of insts commited each cycle (Count)
system.cpu.commit.numCommittedDist::mean     0.123468                       # Number of insts commited each cycle (Count)
system.cpu.commit.numCommittedDist::stdev     0.479177                       # Number of insts commited each cycle (Count)
system.cpu.commit.numCommittedDist::underflows            0      0.00%      0.00% # Number of insts commited each cycle (Count)
system.cpu.commit.numCommittedDist::0       705756559     90.79%     90.79% # Number of insts commited each cycle (Count)
system.cpu.commit.numCommittedDist::1        58640655      7.54%     98.33% # Number of insts commited each cycle (Count)
system.cpu.commit.numCommittedDist::2         5595823      0.72%     99.05% # Number of insts commited each cycle (Count)
system.cpu.commit.numCommittedDist::3         6464255      0.83%     99.88% # Number of insts commited each cycle (Count)
system.cpu.commit.numCommittedDist::4           96609      0.01%     99.89% # Number of insts commited each cycle (Count)
system.cpu.commit.numCommittedDist::5           54477      0.01%     99.90% # Number of insts commited each cycle (Count)
system.cpu.commit.numCommittedDist::6           23707      0.00%     99.90% # Number of insts commited each cycle (Count)
system.cpu.commit.numCommittedDist::7           37045      0.00%     99.91% # Number of insts commited each cycle (Count)
system.cpu.commit.numCommittedDist::8          711988      0.09%    100.00% # Number of insts commited each cycle (Count)
system.cpu.commit.numCommittedDist::overflows            0      0.00%    100.00% # Number of insts commited each cycle (Count)
system.cpu.commit.numCommittedDist::min_value            0                       # Number of insts commited each cycle (Count)
system.cpu.commit.numCommittedDist::max_value            8                       # Number of insts commited each cycle (Count)
system.cpu.commit.numCommittedDist::total    777381118                       # Number of insts commited each cycle (Count)
system.cpu.commit.instsCommitted             50000000                       # Number of instructions committed (Count)
system.cpu.commit.opsCommitted               95981348                       # Number of ops (including micro ops) committed (Count)
system.cpu.commit.memRefs                    53378553                       # Number of memory references committed (Count)
system.cpu.commit.loads                       1350124                       # Number of loads committed (Count)
system.cpu.commit.amos                              0                       # Number of atomic instructions committed (Count)
system.cpu.commit.membars                          32                       # Number of memory barriers committed (Count)
system.cpu.commit.branches                    6543969                       # Number of branches committed (Count)
system.cpu.commit.vectorInstructions                0                       # Number of committed Vector instructions. (Count)
system.cpu.commit.floating                   51833451                       # Number of committed floating point instructions. (Count)
system.cpu.commit.integer                    95975921                       # Number of committed integer instructions. (Count)
system.cpu.commit.functionCalls                  3805                       # Number of function calls committed. (Count)
system.cpu.commit.committedInstType_0::No_OpClass          551      0.00%      0.00% # Class of committed instruction (Count)
system.cpu.commit.committedInstType_0::IntAlu     42597874     44.38%     44.38% # Class of committed instruction (Count)
system.cpu.commit.committedInstType_0::IntMult          725      0.00%     44.38% # Class of committed instruction (Count)
system.cpu.commit.committedInstType_0::IntDiv           21      0.00%     44.38% # Class of committed instruction (Count)
system.cpu.commit.committedInstType_0::FloatAdd          199      0.00%     44.38% # Class of committed instruction (Count)
system.cpu.commit.committedInstType_0::FloatCmp            0      0.00%     44.38% # Class of committed instruction (Count)
system.cpu.commit.committedInstType_0::FloatCvt            0      0.00%     44.38% # Class of committed instruction (Count)
system.cpu.commit.committedInstType_0::FloatMult            0      0.00%     44.38% # Class of committed instruction (Count)
system.cpu.commit.committedInstType_0::FloatMultAcc            0      0.00%     44.38% # Class of committed instruction (Count)
system.cpu.commit.committedInstType_0::FloatDiv            0      0.00%     44.38% # Class of committed instruction (Count)
system.cpu.commit.committedInstType_0::FloatMisc            0      0.00%     44.38% # Class of committed instruction (Count)
system.cpu.commit.committedInstType_0::FloatSqrt            0      0.00%     44.38% # Class of committed instruction (Count)
system.cpu.commit.committedInstType_0::SimdAdd            0      0.00%     44.38% # Class of committed instruction (Count)
system.cpu.commit.committedInstType_0::SimdAddAcc            0      0.00%     44.38% # Class of committed instruction (Count)
system.cpu.commit.committedInstType_0::SimdAlu          786      0.00%     44.38% # Class of committed instruction (Count)
system.cpu.commit.committedInstType_0::SimdCmp           12      0.00%     44.38% # Class of committed instruction (Count)
system.cpu.commit.committedInstType_0::SimdCvt          788      0.00%     44.38% # Class of committed instruction (Count)
system.cpu.commit.committedInstType_0::SimdMisc         1839      0.00%     44.39% # Class of committed instruction (Count)
system.cpu.commit.committedInstType_0::SimdMult            0      0.00%     44.39% # Class of committed instruction (Count)
system.cpu.commit.committedInstType_0::SimdMultAcc            0      0.00%     44.39% # Class of committed instruction (Count)
system.cpu.commit.committedInstType_0::SimdShift            0      0.00%     44.39% # Class of committed instruction (Count)
system.cpu.commit.committedInstType_0::SimdShiftAcc            0      0.00%     44.39% # Class of committed instruction (Count)
system.cpu.commit.committedInstType_0::SimdDiv            0      0.00%     44.39% # Class of committed instruction (Count)
system.cpu.commit.committedInstType_0::SimdSqrt            0      0.00%     44.39% # Class of committed instruction (Count)
system.cpu.commit.committedInstType_0::SimdFloatAdd            0      0.00%     44.39% # Class of committed instruction (Count)
system.cpu.commit.committedInstType_0::SimdFloatAlu            0      0.00%     44.39% # Class of committed instruction (Count)
system.cpu.commit.committedInstType_0::SimdFloatCmp            0      0.00%     44.39% # Class of committed instruction (Count)
system.cpu.commit.committedInstType_0::SimdFloatCvt            0      0.00%     44.39% # Class of committed instruction (Count)
system.cpu.commit.committedInstType_0::SimdFloatDiv            0      0.00%     44.39% # Class of committed instruction (Count)
system.cpu.commit.committedInstType_0::SimdFloatMisc            0      0.00%     44.39% # Class of committed instruction (Count)
system.cpu.commit.committedInstType_0::SimdFloatMult            0      0.00%     44.39% # Class of committed instruction (Count)
system.cpu.commit.committedInstType_0::SimdFloatMultAcc            0      0.00%     44.39% # Class of committed instruction (Count)
system.cpu.commit.committedInstType_0::SimdFloatSqrt            0      0.00%     44.39% # Class of committed instruction (Count)
system.cpu.commit.committedInstType_0::SimdReduceAdd            0      0.00%     44.39% # Class of committed instruction (Count)
system.cpu.commit.committedInstType_0::SimdReduceAlu            0      0.00%     44.39% # Class of committed instruction (Count)
system.cpu.commit.committedInstType_0::SimdReduceCmp            0      0.00%     44.39% # Class of committed instruction (Count)
system.cpu.commit.committedInstType_0::SimdFloatReduceAdd            0      0.00%     44.39% # Class of committed instruction (Count)
system.cpu.commit.committedInstType_0::SimdFloatReduceCmp            0      0.00%     44.39% # Class of committed instruction (Count)
system.cpu.commit.committedInstType_0::SimdAes            0      0.00%     44.39% # Class of committed instruction (Count)
system.cpu.commit.committedInstType_0::SimdAesMix            0      0.00%     44.39% # Class of committed instruction (Count)
system.cpu.commit.committedInstType_0::SimdSha1Hash            0      0.00%     44.39% # Class of committed instruction (Count)
system.cpu.commit.committedInstType_0::SimdSha1Hash2            0      0.00%     44.39% # Class of committed instruction (Count)
system.cpu.commit.committedInstType_0::SimdSha256Hash            0      0.00%     44.39% # Class of committed instruction (Count)
system.cpu.commit.committedInstType_0::SimdSha256Hash2            0      0.00%     44.39% # Class of committed instruction (Count)
system.cpu.commit.committedInstType_0::SimdShaSigma2            0      0.00%     44.39% # Class of committed instruction (Count)
system.cpu.commit.committedInstType_0::SimdShaSigma3            0      0.00%     44.39% # Class of committed instruction (Count)
system.cpu.commit.committedInstType_0::SimdPredAlu            0      0.00%     44.39% # Class of committed instruction (Count)
system.cpu.commit.committedInstType_0::MemRead      1349676      1.41%     45.79% # Class of committed instruction (Count)
system.cpu.commit.committedInstType_0::MemWrite       199599      0.21%     46.00% # Class of committed instruction (Count)
system.cpu.commit.committedInstType_0::FloatMemRead          448      0.00%     46.00% # Class of committed instruction (Count)
system.cpu.commit.committedInstType_0::FloatMemWrite     51828830     54.00%    100.00% # Class of committed instruction (Count)
system.cpu.commit.committedInstType_0::IprAccess            0      0.00%    100.00% # Class of committed instruction (Count)
system.cpu.commit.committedInstType_0::InstPrefetch            0      0.00%    100.00% # Class of committed instruction (Count)
system.cpu.commit.committedInstType_0::total     95981348                       # Class of committed instruction (Count)
system.cpu.commit.commitEligibleSamples        711988                       # number cycles where commit BW limit reached (Cycle)
system.cpu.dcache.demandHits::cpu.data       46600127                       # number of demand (read+write) hits (Count)
system.cpu.dcache.demandHits::total          46600127                       # number of demand (read+write) hits (Count)
system.cpu.dcache.overallHits::cpu.data      46600127                       # number of overall hits (Count)
system.cpu.dcache.overallHits::total         46600127                       # number of overall hits (Count)
system.cpu.dcache.demandMisses::cpu.data      6482406                       # number of demand (read+write) misses (Count)
system.cpu.dcache.demandMisses::total         6482406                       # number of demand (read+write) misses (Count)
system.cpu.dcache.overallMisses::cpu.data      6482406                       # number of overall misses (Count)
system.cpu.dcache.overallMisses::total        6482406                       # number of overall misses (Count)
system.cpu.dcache.demandMissLatency::cpu.data 684672252998                       # number of demand (read+write) miss ticks (Tick)
system.cpu.dcache.demandMissLatency::total 684672252998                       # number of demand (read+write) miss ticks (Tick)
system.cpu.dcache.overallMissLatency::cpu.data 684672252998                       # number of overall miss ticks (Tick)
system.cpu.dcache.overallMissLatency::total 684672252998                       # number of overall miss ticks (Tick)
system.cpu.dcache.demandAccesses::cpu.data     53082533                       # number of demand (read+write) accesses (Count)
system.cpu.dcache.demandAccesses::total      53082533                       # number of demand (read+write) accesses (Count)
system.cpu.dcache.overallAccesses::cpu.data     53082533                       # number of overall (read+write) accesses (Count)
system.cpu.dcache.overallAccesses::total     53082533                       # number of overall (read+write) accesses (Count)
system.cpu.dcache.demandMissRate::cpu.data     0.122119                       # miss rate for demand accesses (Ratio)
system.cpu.dcache.demandMissRate::total      0.122119                       # miss rate for demand accesses (Ratio)
system.cpu.dcache.overallMissRate::cpu.data     0.122119                       # miss rate for overall accesses (Ratio)
system.cpu.dcache.overallMissRate::total     0.122119                       # miss rate for overall accesses (Ratio)
system.cpu.dcache.demandAvgMissLatency::cpu.data 105620.081957                       # average overall miss latency in ticks ((Tick/Count))
system.cpu.dcache.demandAvgMissLatency::total 105620.081957                       # average overall miss latency in ticks ((Tick/Count))
system.cpu.dcache.overallAvgMissLatency::cpu.data 105620.081957                       # average overall miss latency ((Tick/Count))
system.cpu.dcache.overallAvgMissLatency::total 105620.081957                       # average overall miss latency ((Tick/Count))
system.cpu.dcache.blockedCycles::no_mshrs         1588                       # number of cycles access was blocked (Cycle)
system.cpu.dcache.blockedCycles::no_targets            0                       # number of cycles access was blocked (Cycle)
system.cpu.dcache.blockedCauses::no_mshrs           37                       # number of times access was blocked (Count)
system.cpu.dcache.blockedCauses::no_targets            0                       # number of times access was blocked (Count)
system.cpu.dcache.avgBlocked::no_mshrs      42.918919                       # average number of cycles each access was blocked ((Cycle/Count))
system.cpu.dcache.avgBlocked::no_targets          nan                       # average number of cycles each access was blocked ((Cycle/Count))
system.cpu.dcache.writebacks::writebacks      6481151                       # number of writebacks (Count)
system.cpu.dcache.writebacks::total           6481151                       # number of writebacks (Count)
system.cpu.dcache.demandMshrHits::cpu.data          449                       # number of demand (read+write) MSHR hits (Count)
system.cpu.dcache.demandMshrHits::total           449                       # number of demand (read+write) MSHR hits (Count)
system.cpu.dcache.overallMshrHits::cpu.data          449                       # number of overall MSHR hits (Count)
system.cpu.dcache.overallMshrHits::total          449                       # number of overall MSHR hits (Count)
system.cpu.dcache.demandMshrMisses::cpu.data      6481957                       # number of demand (read+write) MSHR misses (Count)
system.cpu.dcache.demandMshrMisses::total      6481957                       # number of demand (read+write) MSHR misses (Count)
system.cpu.dcache.overallMshrMisses::cpu.data      6481957                       # number of overall MSHR misses (Count)
system.cpu.dcache.overallMshrMisses::total      6481957                       # number of overall MSHR misses (Count)
system.cpu.dcache.demandMshrMissLatency::cpu.data 671671454998                       # number of demand (read+write) MSHR miss ticks (Tick)
system.cpu.dcache.demandMshrMissLatency::total 671671454998                       # number of demand (read+write) MSHR miss ticks (Tick)
system.cpu.dcache.overallMshrMissLatency::cpu.data 671671454998                       # number of overall MSHR miss ticks (Tick)
system.cpu.dcache.overallMshrMissLatency::total 671671454998                       # number of overall MSHR miss ticks (Tick)
system.cpu.dcache.demandMshrMissRate::cpu.data     0.122111                       # mshr miss ratio for demand accesses (Ratio)
system.cpu.dcache.demandMshrMissRate::total     0.122111                       # mshr miss ratio for demand accesses (Ratio)
system.cpu.dcache.overallMshrMissRate::cpu.data     0.122111                       # mshr miss ratio for overall accesses (Ratio)
system.cpu.dcache.overallMshrMissRate::total     0.122111                       # mshr miss ratio for overall accesses (Ratio)
system.cpu.dcache.demandAvgMshrMissLatency::cpu.data 103621.707919                       # average overall mshr miss latency ((Tick/Count))
system.cpu.dcache.demandAvgMshrMissLatency::total 103621.707919                       # average overall mshr miss latency ((Tick/Count))
system.cpu.dcache.overallAvgMshrMissLatency::cpu.data 103621.707919                       # average overall mshr miss latency ((Tick/Count))
system.cpu.dcache.overallAvgMshrMissLatency::total 103621.707919                       # average overall mshr miss latency ((Tick/Count))
system.cpu.dcache.replacements                6481445                       # number of replacements (Count)
system.cpu.dcache.LockedRMWReadReq.hits::cpu.data           16                       # number of LockedRMWReadReq hits (Count)
system.cpu.dcache.LockedRMWReadReq.hits::total           16                       # number of LockedRMWReadReq hits (Count)
system.cpu.dcache.LockedRMWReadReq.accesses::cpu.data           16                       # number of LockedRMWReadReq accesses(hits+misses) (Count)
system.cpu.dcache.LockedRMWReadReq.accesses::total           16                       # number of LockedRMWReadReq accesses(hits+misses) (Count)
system.cpu.dcache.LockedRMWReadReq.mshrMissLatency::cpu.data       184000                       # number of LockedRMWReadReq MSHR miss ticks (Tick)
system.cpu.dcache.LockedRMWReadReq.mshrMissLatency::total       184000                       # number of LockedRMWReadReq MSHR miss ticks (Tick)
system.cpu.dcache.LockedRMWReadReq.avgMshrMissLatency::cpu.data          inf                       # average LockedRMWReadReq mshr miss latency ((Tick/Count))
system.cpu.dcache.LockedRMWReadReq.avgMshrMissLatency::total          inf                       # average LockedRMWReadReq mshr miss latency ((Tick/Count))
system.cpu.dcache.LockedRMWWriteReq.hits::cpu.data           16                       # number of LockedRMWWriteReq hits (Count)
system.cpu.dcache.LockedRMWWriteReq.hits::total           16                       # number of LockedRMWWriteReq hits (Count)
system.cpu.dcache.LockedRMWWriteReq.accesses::cpu.data           16                       # number of LockedRMWWriteReq accesses(hits+misses) (Count)
system.cpu.dcache.LockedRMWWriteReq.accesses::total           16                       # number of LockedRMWWriteReq accesses(hits+misses) (Count)
system.cpu.dcache.ReadReq.hits::cpu.data      1053302                       # number of ReadReq hits (Count)
system.cpu.dcache.ReadReq.hits::total         1053302                       # number of ReadReq hits (Count)
system.cpu.dcache.ReadReq.misses::cpu.data          845                       # number of ReadReq misses (Count)
system.cpu.dcache.ReadReq.misses::total           845                       # number of ReadReq misses (Count)
system.cpu.dcache.ReadReq.missLatency::cpu.data     80580000                       # number of ReadReq miss ticks (Tick)
system.cpu.dcache.ReadReq.missLatency::total     80580000                       # number of ReadReq miss ticks (Tick)
system.cpu.dcache.ReadReq.accesses::cpu.data      1054147                       # number of ReadReq accesses(hits+misses) (Count)
system.cpu.dcache.ReadReq.accesses::total      1054147                       # number of ReadReq accesses(hits+misses) (Count)
system.cpu.dcache.ReadReq.missRate::cpu.data     0.000802                       # miss rate for ReadReq accesses (Ratio)
system.cpu.dcache.ReadReq.missRate::total     0.000802                       # miss rate for ReadReq accesses (Ratio)
system.cpu.dcache.ReadReq.avgMissLatency::cpu.data 95360.946746                       # average ReadReq miss latency ((Tick/Count))
system.cpu.dcache.ReadReq.avgMissLatency::total 95360.946746                       # average ReadReq miss latency ((Tick/Count))
system.cpu.dcache.ReadReq.mshrHits::cpu.data          448                       # number of ReadReq MSHR hits (Count)
system.cpu.dcache.ReadReq.mshrHits::total          448                       # number of ReadReq MSHR hits (Count)
system.cpu.dcache.ReadReq.mshrMisses::cpu.data          397                       # number of ReadReq MSHR misses (Count)
system.cpu.dcache.ReadReq.mshrMisses::total          397                       # number of ReadReq MSHR misses (Count)
system.cpu.dcache.ReadReq.mshrMissLatency::cpu.data     42922000                       # number of ReadReq MSHR miss ticks (Tick)
system.cpu.dcache.ReadReq.mshrMissLatency::total     42922000                       # number of ReadReq MSHR miss ticks (Tick)
system.cpu.dcache.ReadReq.mshrMissRate::cpu.data     0.000377                       # mshr miss rate for ReadReq accesses (Ratio)
system.cpu.dcache.ReadReq.mshrMissRate::total     0.000377                       # mshr miss rate for ReadReq accesses (Ratio)
system.cpu.dcache.ReadReq.avgMshrMissLatency::cpu.data 108115.869018                       # average ReadReq mshr miss latency ((Tick/Count))
system.cpu.dcache.ReadReq.avgMshrMissLatency::total 108115.869018                       # average ReadReq mshr miss latency ((Tick/Count))
system.cpu.dcache.WriteReq.hits::cpu.data     45546825                       # number of WriteReq hits (Count)
system.cpu.dcache.WriteReq.hits::total       45546825                       # number of WriteReq hits (Count)
system.cpu.dcache.WriteReq.misses::cpu.data      6481561                       # number of WriteReq misses (Count)
system.cpu.dcache.WriteReq.misses::total      6481561                       # number of WriteReq misses (Count)
system.cpu.dcache.WriteReq.missLatency::cpu.data 684591672998                       # number of WriteReq miss ticks (Tick)
system.cpu.dcache.WriteReq.missLatency::total 684591672998                       # number of WriteReq miss ticks (Tick)
system.cpu.dcache.WriteReq.accesses::cpu.data     52028386                       # number of WriteReq accesses(hits+misses) (Count)
system.cpu.dcache.WriteReq.accesses::total     52028386                       # number of WriteReq accesses(hits+misses) (Count)
system.cpu.dcache.WriteReq.missRate::cpu.data     0.124577                       # miss rate for WriteReq accesses (Ratio)
system.cpu.dcache.WriteReq.missRate::total     0.124577                       # miss rate for WriteReq accesses (Ratio)
system.cpu.dcache.WriteReq.avgMissLatency::cpu.data 105621.419439                       # average WriteReq miss latency ((Tick/Count))
system.cpu.dcache.WriteReq.avgMissLatency::total 105621.419439                       # average WriteReq miss latency ((Tick/Count))
system.cpu.dcache.WriteReq.mshrHits::cpu.data            1                       # number of WriteReq MSHR hits (Count)
system.cpu.dcache.WriteReq.mshrHits::total            1                       # number of WriteReq MSHR hits (Count)
system.cpu.dcache.WriteReq.mshrMisses::cpu.data      6481560                       # number of WriteReq MSHR misses (Count)
system.cpu.dcache.WriteReq.mshrMisses::total      6481560                       # number of WriteReq MSHR misses (Count)
system.cpu.dcache.WriteReq.mshrMissLatency::cpu.data 671628532998                       # number of WriteReq MSHR miss ticks (Tick)
system.cpu.dcache.WriteReq.mshrMissLatency::total 671628532998                       # number of WriteReq MSHR miss ticks (Tick)
system.cpu.dcache.WriteReq.mshrMissRate::cpu.data     0.124577                       # mshr miss rate for WriteReq accesses (Ratio)
system.cpu.dcache.WriteReq.mshrMissRate::total     0.124577                       # mshr miss rate for WriteReq accesses (Ratio)
system.cpu.dcache.WriteReq.avgMshrMissLatency::cpu.data 103621.432649                       # average WriteReq mshr miss latency ((Tick/Count))
system.cpu.dcache.WriteReq.avgMshrMissLatency::total 103621.432649                       # average WriteReq mshr miss latency ((Tick/Count))
system.cpu.dcache.power_state.pwrStateResidencyTicks::UNDEFINED 777762590000                       # Cumulative time (in ticks) in various power states (Tick)
system.cpu.dcache.tags.tagsInUse           511.964442                       # Average ticks per tags in use ((Tick/Count))
system.cpu.dcache.tags.totalRefs             53082116                       # Total number of references to valid blocks. (Count)
system.cpu.dcache.tags.sampledRefs            6481957                       # Sample count of references to valid blocks. (Count)
system.cpu.dcache.tags.avgRefs               8.189211                       # Average number of references to valid blocks. ((Count/Count))
system.cpu.dcache.tags.warmupTick              222000                       # The tick when the warmup percentage was hit. (Tick)
system.cpu.dcache.tags.occupancies::cpu.data   511.964442                       # Average occupied blocks per tick, per requestor ((Count/Tick))
system.cpu.dcache.tags.avgOccs::cpu.data     0.999931                       # Average percentage of cache occupancy ((Ratio/Tick))
system.cpu.dcache.tags.avgOccs::total        0.999931                       # Average percentage of cache occupancy ((Ratio/Tick))
system.cpu.dcache.tags.occupanciesTaskId::1024          512                       # Occupied blocks per task id (Count)
system.cpu.dcache.tags.ageTaskId_1024::0           83                       # Occupied blocks per task id, per block age (Count)
system.cpu.dcache.tags.ageTaskId_1024::1          429                       # Occupied blocks per task id, per block age (Count)
system.cpu.dcache.tags.ratioOccsTaskId::1024            1                       # Ratio of occupied blocks and all blocks, per task id (Ratio)
system.cpu.dcache.tags.tagAccesses          218812217                       # Number of tag accesses (Count)
system.cpu.dcache.tags.dataAccesses         218812217                       # Number of data accesses (Count)
system.cpu.dcache.tags.power_state.pwrStateResidencyTicks::UNDEFINED 777762590000                       # Cumulative time (in ticks) in various power states (Tick)
system.cpu.decode.idleCycles                  4029873                       # Number of cycles decode is idle (Cycle)
system.cpu.decode.blockedCycles             761231254                       # Number of cycles decode is blocked (Cycle)
system.cpu.decode.runCycles                    799916                       # Number of cycles decode is running (Cycle)
system.cpu.decode.unblockCycles              11604918                       # Number of cycles decode is unblocking (Cycle)
system.cpu.decode.squashCycles                  49477                       # Number of cycles decode is squashing (Cycle)
system.cpu.decode.branchResolved              6716602                       # Number of times decode resolved a branch (Count)
system.cpu.decode.branchMispred                  1520                       # Number of times decode detected a branch misprediction (Count)
system.cpu.decode.decodedInsts               98958238                       # Number of instructions handled by decode (Count)
system.cpu.decode.squashedInsts                  6174                       # Number of squashed instructions handled by decode (Count)
system.cpu.fetch.icacheStallCycles             344331                       # Number of cycles fetch is stalled on an Icache miss (Cycle)
system.cpu.fetch.insts                       52637290                       # Number of instructions fetch has processed (Count)
system.cpu.fetch.branches                     6878611                       # Number of branches that fetch encountered (Count)
system.cpu.fetch.predictedBranches            6855450                       # Number of branches that fetch has predicted taken (Count)
system.cpu.fetch.cycles                     777319714                       # Number of cycles fetch has run and was not squashing or blocked (Cycle)
system.cpu.fetch.squashCycles                  101950                       # Number of cycles fetch has spent squashing (Cycle)
system.cpu.fetch.miscStallCycles                   50                       # Number of cycles fetch has spent waiting on interrupts, or bad addresses, or out of MSHRs (Cycle)
system.cpu.fetch.pendingTrapStallCycles           303                       # Number of stall cycles due to pending traps (Cycle)
system.cpu.fetch.icacheWaitRetryStallCycles           65                       # Number of stall cycles due to full MSHR (Cycle)
system.cpu.fetch.cacheLines                    306557                       # Number of cache lines fetched (Count)
system.cpu.fetch.icacheSquashes                  2545                       # Number of outstanding Icache misses that were squashed (Count)
system.cpu.fetch.nisnDist::samples          777715438                       # Number of instructions fetched each cycle (Total) (Count)
system.cpu.fetch.nisnDist::mean              0.130014                       # Number of instructions fetched each cycle (Total) (Count)
system.cpu.fetch.nisnDist::stdev             0.917092                       # Number of instructions fetched each cycle (Total) (Count)
system.cpu.fetch.nisnDist::underflows               0      0.00%      0.00% # Number of instructions fetched each cycle (Total) (Count)
system.cpu.fetch.nisnDist::0                759507748     97.66%     97.66% # Number of instructions fetched each cycle (Total) (Count)
system.cpu.fetch.nisnDist::1                   913453      0.12%     97.78% # Number of instructions fetched each cycle (Total) (Count)
system.cpu.fetch.nisnDist::2                  2386446      0.31%     98.08% # Number of instructions fetched each cycle (Total) (Count)
system.cpu.fetch.nisnDist::3                   980859      0.13%     98.21% # Number of instructions fetched each cycle (Total) (Count)
system.cpu.fetch.nisnDist::4                  2439864      0.31%     98.52% # Number of instructions fetched each cycle (Total) (Count)
system.cpu.fetch.nisnDist::5                   935085      0.12%     98.64% # Number of instructions fetched each cycle (Total) (Count)
system.cpu.fetch.nisnDist::6                  2856383      0.37%     99.01% # Number of instructions fetched each cycle (Total) (Count)
system.cpu.fetch.nisnDist::7                   653339      0.08%     99.09% # Number of instructions fetched each cycle (Total) (Count)
system.cpu.fetch.nisnDist::8                  7042261      0.91%    100.00% # Number of instructions fetched each cycle (Total) (Count)
system.cpu.fetch.nisnDist::overflows                0      0.00%    100.00% # Number of instructions fetched each cycle (Total) (Count)
system.cpu.fetch.nisnDist::min_value                0                       # Number of instructions fetched each cycle (Total) (Count)
system.cpu.fetch.nisnDist::max_value                8                       # Number of instructions fetched each cycle (Total) (Count)
system.cpu.fetch.nisnDist::total            777715438                       # Number of instructions fetched each cycle (Total) (Count)
system.cpu.fetch.branchRate                  0.008844                       # Number of branch fetches per cycle (Ratio)
system.cpu.fetch.rate                        0.067678                       # Number of inst fetches per cycle ((Count/Cycle))
system.cpu.icache.demandHits::cpu.inst         304959                       # number of demand (read+write) hits (Count)
system.cpu.icache.demandHits::total            304959                       # number of demand (read+write) hits (Count)
system.cpu.icache.overallHits::cpu.inst        304959                       # number of overall hits (Count)
system.cpu.icache.overallHits::total           304959                       # number of overall hits (Count)
system.cpu.icache.demandMisses::cpu.inst         1597                       # number of demand (read+write) misses (Count)
system.cpu.icache.demandMisses::total            1597                       # number of demand (read+write) misses (Count)
system.cpu.icache.overallMisses::cpu.inst         1597                       # number of overall misses (Count)
system.cpu.icache.overallMisses::total           1597                       # number of overall misses (Count)
system.cpu.icache.demandMissLatency::cpu.inst    147986998                       # number of demand (read+write) miss ticks (Tick)
system.cpu.icache.demandMissLatency::total    147986998                       # number of demand (read+write) miss ticks (Tick)
system.cpu.icache.overallMissLatency::cpu.inst    147986998                       # number of overall miss ticks (Tick)
system.cpu.icache.overallMissLatency::total    147986998                       # number of overall miss ticks (Tick)
system.cpu.icache.demandAccesses::cpu.inst       306556                       # number of demand (read+write) accesses (Count)
system.cpu.icache.demandAccesses::total        306556                       # number of demand (read+write) accesses (Count)
system.cpu.icache.overallAccesses::cpu.inst       306556                       # number of overall (read+write) accesses (Count)
system.cpu.icache.overallAccesses::total       306556                       # number of overall (read+write) accesses (Count)
system.cpu.icache.demandMissRate::cpu.inst     0.005209                       # miss rate for demand accesses (Ratio)
system.cpu.icache.demandMissRate::total      0.005209                       # miss rate for demand accesses (Ratio)
system.cpu.icache.overallMissRate::cpu.inst     0.005209                       # miss rate for overall accesses (Ratio)
system.cpu.icache.overallMissRate::total     0.005209                       # miss rate for overall accesses (Ratio)
system.cpu.icache.demandAvgMissLatency::cpu.inst 92665.621791                       # average overall miss latency in ticks ((Tick/Count))
system.cpu.icache.demandAvgMissLatency::total 92665.621791                       # average overall miss latency in ticks ((Tick/Count))
system.cpu.icache.overallAvgMissLatency::cpu.inst 92665.621791                       # average overall miss latency ((Tick/Count))
system.cpu.icache.overallAvgMissLatency::total 92665.621791                       # average overall miss latency ((Tick/Count))
system.cpu.icache.blockedCycles::no_mshrs          463                       # number of cycles access was blocked (Cycle)
system.cpu.icache.blockedCycles::no_targets            0                       # number of cycles access was blocked (Cycle)
system.cpu.icache.blockedCauses::no_mshrs           15                       # number of times access was blocked (Count)
system.cpu.icache.blockedCauses::no_targets            0                       # number of times access was blocked (Count)
system.cpu.icache.avgBlocked::no_mshrs      30.866667                       # average number of cycles each access was blocked ((Cycle/Count))
system.cpu.icache.avgBlocked::no_targets          nan                       # average number of cycles each access was blocked ((Cycle/Count))
system.cpu.icache.demandMshrHits::cpu.inst          318                       # number of demand (read+write) MSHR hits (Count)
system.cpu.icache.demandMshrHits::total           318                       # number of demand (read+write) MSHR hits (Count)
system.cpu.icache.overallMshrHits::cpu.inst          318                       # number of overall MSHR hits (Count)
system.cpu.icache.overallMshrHits::total          318                       # number of overall MSHR hits (Count)
system.cpu.icache.demandMshrMisses::cpu.inst         1279                       # number of demand (read+write) MSHR misses (Count)
system.cpu.icache.demandMshrMisses::total         1279                       # number of demand (read+write) MSHR misses (Count)
system.cpu.icache.overallMshrMisses::cpu.inst         1279                       # number of overall MSHR misses (Count)
system.cpu.icache.overallMshrMisses::total         1279                       # number of overall MSHR misses (Count)
system.cpu.icache.demandMshrMissLatency::cpu.inst    120636998                       # number of demand (read+write) MSHR miss ticks (Tick)
system.cpu.icache.demandMshrMissLatency::total    120636998                       # number of demand (read+write) MSHR miss ticks (Tick)
system.cpu.icache.overallMshrMissLatency::cpu.inst    120636998                       # number of overall MSHR miss ticks (Tick)
system.cpu.icache.overallMshrMissLatency::total    120636998                       # number of overall MSHR miss ticks (Tick)
system.cpu.icache.demandMshrMissRate::cpu.inst     0.004172                       # mshr miss ratio for demand accesses (Ratio)
system.cpu.icache.demandMshrMissRate::total     0.004172                       # mshr miss ratio for demand accesses (Ratio)
system.cpu.icache.overallMshrMissRate::cpu.inst     0.004172                       # mshr miss ratio for overall accesses (Ratio)
system.cpu.icache.overallMshrMissRate::total     0.004172                       # mshr miss ratio for overall accesses (Ratio)
system.cpu.icache.demandAvgMshrMissLatency::cpu.inst 94321.343237                       # average overall mshr miss latency ((Tick/Count))
system.cpu.icache.demandAvgMshrMissLatency::total 94321.343237                       # average overall mshr miss latency ((Tick/Count))
system.cpu.icache.overallAvgMshrMissLatency::cpu.inst 94321.343237                       # average overall mshr miss latency ((Tick/Count))
system.cpu.icache.overallAvgMshrMissLatency::total 94321.343237                       # average overall mshr miss latency ((Tick/Count))
system.cpu.icache.replacements                    781                       # number of replacements (Count)
system.cpu.icache.ReadReq.hits::cpu.inst       304959                       # number of ReadReq hits (Count)
system.cpu.icache.ReadReq.hits::total          304959                       # number of ReadReq hits (Count)
system.cpu.icache.ReadReq.misses::cpu.inst         1597                       # number of ReadReq misses (Count)
system.cpu.icache.ReadReq.misses::total          1597                       # number of ReadReq misses (Count)
system.cpu.icache.ReadReq.missLatency::cpu.inst    147986998                       # number of ReadReq miss ticks (Tick)
system.cpu.icache.ReadReq.missLatency::total    147986998                       # number of ReadReq miss ticks (Tick)
system.cpu.icache.ReadReq.accesses::cpu.inst       306556                       # number of ReadReq accesses(hits+misses) (Count)
system.cpu.icache.ReadReq.accesses::total       306556                       # number of ReadReq accesses(hits+misses) (Count)
system.cpu.icache.ReadReq.missRate::cpu.inst     0.005209                       # miss rate for ReadReq accesses (Ratio)
system.cpu.icache.ReadReq.missRate::total     0.005209                       # miss rate for ReadReq accesses (Ratio)
system.cpu.icache.ReadReq.avgMissLatency::cpu.inst 92665.621791                       # average ReadReq miss latency ((Tick/Count))
system.cpu.icache.ReadReq.avgMissLatency::total 92665.621791                       # average ReadReq miss latency ((Tick/Count))
system.cpu.icache.ReadReq.mshrHits::cpu.inst          318                       # number of ReadReq MSHR hits (Count)
system.cpu.icache.ReadReq.mshrHits::total          318                       # number of ReadReq MSHR hits (Count)
system.cpu.icache.ReadReq.mshrMisses::cpu.inst         1279                       # number of ReadReq MSHR misses (Count)
system.cpu.icache.ReadReq.mshrMisses::total         1279                       # number of ReadReq MSHR misses (Count)
system.cpu.icache.ReadReq.mshrMissLatency::cpu.inst    120636998                       # number of ReadReq MSHR miss ticks (Tick)
system.cpu.icache.ReadReq.mshrMissLatency::total    120636998                       # number of ReadReq MSHR miss ticks (Tick)
system.cpu.icache.ReadReq.mshrMissRate::cpu.inst     0.004172                       # mshr miss rate for ReadReq accesses (Ratio)
system.cpu.icache.ReadReq.mshrMissRate::total     0.004172                       # mshr miss rate for ReadReq accesses (Ratio)
system.cpu.icache.ReadReq.avgMshrMissLatency::cpu.inst 94321.343237                       # average ReadReq mshr miss latency ((Tick/Count))
system.cpu.icache.ReadReq.avgMshrMissLatency::total 94321.343237                       # average ReadReq mshr miss latency ((Tick/Count))
system.cpu.icache.power_state.pwrStateResidencyTicks::UNDEFINED 777762590000                       # Cumulative time (in ticks) in various power states (Tick)
system.cpu.icache.tags.tagsInUse           423.497419                       # Average ticks per tags in use ((Tick/Count))
system.cpu.icache.tags.totalRefs               306238                       # Total number of references to valid blocks. (Count)
system.cpu.icache.tags.sampledRefs               1279                       # Sample count of references to valid blocks. (Count)
system.cpu.icache.tags.avgRefs             239.435496                       # Average number of references to valid blocks. ((Count/Count))
system.cpu.icache.tags.warmupTick              107000                       # The tick when the warmup percentage was hit. (Tick)
system.cpu.icache.tags.occupancies::cpu.inst   423.497419                       # Average occupied blocks per tick, per requestor ((Count/Tick))
system.cpu.icache.tags.avgOccs::cpu.inst     0.827143                       # Average percentage of cache occupancy ((Ratio/Tick))
system.cpu.icache.tags.avgOccs::total        0.827143                       # Average percentage of cache occupancy ((Ratio/Tick))
system.cpu.icache.tags.occupanciesTaskId::1024          498                       # Occupied blocks per task id (Count)
system.cpu.icache.tags.ageTaskId_1024::4          498                       # Occupied blocks per task id, per block age (Count)
system.cpu.icache.tags.ratioOccsTaskId::1024     0.972656                       # Ratio of occupied blocks and all blocks, per task id (Ratio)
system.cpu.icache.tags.tagAccesses             614391                       # Number of tag accesses (Count)
system.cpu.icache.tags.dataAccesses            614391                       # Number of data accesses (Count)
system.cpu.icache.tags.power_state.pwrStateResidencyTicks::UNDEFINED 777762590000                       # Cumulative time (in ticks) in various power states (Tick)
system.cpu.iew.idleCycles                           0                       # Number of cycles IEW is idle (Cycle)
system.cpu.iew.squashCycles                     49477                       # Number of cycles IEW is squashing (Cycle)
system.cpu.iew.blockCycles                     286641                       # Number of cycles IEW is blocking (Cycle)
system.cpu.iew.unblockCycles                338778961                       # Number of cycles IEW is unblocking (Cycle)
system.cpu.iew.dispatchedInsts               98634202                       # Number of instructions dispatched to IQ (Count)
system.cpu.iew.dispSquashedInsts                 1217                       # Number of squashed instructions skipped by dispatch (Count)
system.cpu.iew.dispLoadInsts                  1381614                       # Number of dispatched load instructions (Count)
system.cpu.iew.dispStoreInsts                53450383                       # Number of dispatched store instructions (Count)
system.cpu.iew.dispNonSpecInsts                   281                       # Number of dispatched non-speculative instructions (Count)
system.cpu.iew.iqFullEvents                        34                       # Number of times the IQ has become full, causing a stall (Count)
system.cpu.iew.lsqFullEvents                338822856                       # Number of times the LSQ has become full, causing a stall (Count)
system.cpu.iew.memOrderViolationEvents            348                       # Number of memory order violations (Count)
system.cpu.iew.predictedTakenIncorrect           2059                       # Number of branches that were predicted taken incorrectly (Count)
system.cpu.iew.predictedNotTakenIncorrect         3645                       # Number of branches that were predicted not taken incorrectly (Count)
system.cpu.iew.branchMispredicts                 5704                       # Number of branch mispredicts detected at execute (Count)
system.cpu.iew.instsToCommit                 98553454                       # Cumulative count of insts sent to commit (Count)
system.cpu.iew.writebackCount                97232470                       # Cumulative count of insts written-back (Count)
system.cpu.iew.producerInst                  36640656                       # Number of instructions producing a value (Count)
system.cpu.iew.consumerInst                  48860187                       # Number of instructions consuming a value (Count)
system.cpu.iew.wbRate                        0.125016                       # Insts written-back per cycle ((Count/Cycle))
system.cpu.iew.wbFanout                      0.749908                       # Average fanout of values written-back ((Count/Count))
system.cpu.interrupts.clk_domain.clock          16000                       # Clock period in ticks (Tick)
system.cpu.lsq0.forwLoads                      313224                       # Number of loads that had data forwarded from stores (Count)
system.cpu.lsq0.squashedLoads                   31490                       # Number of loads squashed (Count)
system.cpu.lsq0.ignoredResponses                   60                       # Number of memory responses ignored because the instruction is squashed (Count)
system.cpu.lsq0.memOrderViolation                 348                       # Number of memory ordering violations (Count)
system.cpu.lsq0.squashedStores                1421952                       # Number of stores squashed (Count)
system.cpu.lsq0.rescheduledLoads                    0                       # Number of loads that were rescheduled (Count)
system.cpu.lsq0.blockedByCache                     19                       # Number of times an access to memory failed due to the cache being blocked (Count)
system.cpu.lsq0.loadToUse::samples            1350124                       # Distribution of cycle latency between the first time a load is issued and its completion (Unspecified)
system.cpu.lsq0.loadToUse::mean              3.113884                       # Distribution of cycle latency between the first time a load is issued and its completion (Unspecified)
system.cpu.lsq0.loadToUse::stdev             2.326412                       # Distribution of cycle latency between the first time a load is issued and its completion (Unspecified)
system.cpu.lsq0.loadToUse::0-9                1349545     99.96%     99.96% # Distribution of cycle latency between the first time a load is issued and its completion (Unspecified)
system.cpu.lsq0.loadToUse::10-19                    7      0.00%     99.96% # Distribution of cycle latency between the first time a load is issued and its completion (Unspecified)
system.cpu.lsq0.loadToUse::20-29                   37      0.00%     99.96% # Distribution of cycle latency between the first time a load is issued and its completion (Unspecified)
system.cpu.lsq0.loadToUse::30-39                   13      0.00%     99.96% # Distribution of cycle latency between the first time a load is issued and its completion (Unspecified)
system.cpu.lsq0.loadToUse::40-49                    6      0.00%     99.96% # Distribution of cycle latency between the first time a load is issued and its completion (Unspecified)
system.cpu.lsq0.loadToUse::50-59                    6      0.00%     99.96% # Distribution of cycle latency between the first time a load is issued and its completion (Unspecified)
system.cpu.lsq0.loadToUse::60-69                   25      0.00%     99.96% # Distribution of cycle latency between the first time a load is issued and its completion (Unspecified)
system.cpu.lsq0.loadToUse::70-79                   19      0.00%     99.97% # Distribution of cycle latency between the first time a load is issued and its completion (Unspecified)
system.cpu.lsq0.loadToUse::80-89                   28      0.00%     99.97% # Distribution of cycle latency between the first time a load is issued and its completion (Unspecified)
system.cpu.lsq0.loadToUse::90-99                  139      0.01%     99.98% # Distribution of cycle latency between the first time a load is issued and its completion (Unspecified)
system.cpu.lsq0.loadToUse::100-109                 54      0.00%     99.98% # Distribution of cycle latency between the first time a load is issued and its completion (Unspecified)
system.cpu.lsq0.loadToUse::110-119                117      0.01%     99.99% # Distribution of cycle latency between the first time a load is issued and its completion (Unspecified)
system.cpu.lsq0.loadToUse::120-129                 95      0.01%    100.00% # Distribution of cycle latency between the first time a load is issued and its completion (Unspecified)
system.cpu.lsq0.loadToUse::130-139                 12      0.00%    100.00% # Distribution of cycle latency between the first time a load is issued and its completion (Unspecified)
system.cpu.lsq0.loadToUse::140-149                  3      0.00%    100.00% # Distribution of cycle latency between the first time a load is issued and its completion (Unspecified)
system.cpu.lsq0.loadToUse::170-179                  4      0.00%    100.00% # Distribution of cycle latency between the first time a load is issued and its completion (Unspecified)
system.cpu.lsq0.loadToUse::190-199                  2      0.00%    100.00% # Distribution of cycle latency between the first time a load is issued and its completion (Unspecified)
system.cpu.lsq0.loadToUse::200-209                  1      0.00%    100.00% # Distribution of cycle latency between the first time a load is issued and its completion (Unspecified)
system.cpu.lsq0.loadToUse::210-219                  1      0.00%    100.00% # Distribution of cycle latency between the first time a load is issued and its completion (Unspecified)
system.cpu.lsq0.loadToUse::230-239                  1      0.00%    100.00% # Distribution of cycle latency between the first time a load is issued and its completion (Unspecified)
system.cpu.lsq0.loadToUse::260-269                  1      0.00%    100.00% # Distribution of cycle latency between the first time a load is issued and its completion (Unspecified)
system.cpu.lsq0.loadToUse::overflows                8      0.00%    100.00% # Distribution of cycle latency between the first time a load is issued and its completion (Unspecified)
system.cpu.lsq0.loadToUse::min_value                2                       # Distribution of cycle latency between the first time a load is issued and its completion (Unspecified)
system.cpu.lsq0.loadToUse::max_value              382                       # Distribution of cycle latency between the first time a load is issued and its completion (Unspecified)
system.cpu.lsq0.loadToUse::total              1350124                       # Distribution of cycle latency between the first time a load is issued and its completion (Unspecified)
system.cpu.mmu.dtb.rdAccesses                 1367532                       # TLB accesses on read requests (Count)
system.cpu.mmu.dtb.wrAccesses                53441732                       # TLB accesses on write requests (Count)
[...]
system.mem_ctrl.dram.bytesWritten::total    412726976                       # Number of bytes written to this memory (Byte)
system.mem_ctrl.dram.numReads::cpu.inst          1067                       # Number of read requests responded to by this memory (Count)
system.mem_ctrl.dram.numReads::cpu.data       6481908                       # Number of read requests responded to by this memory (Count)
system.mem_ctrl.dram.numReads::total          6482975                       # Number of read requests responded to by this memory (Count)
system.mem_ctrl.dram.numWrites::writebacks      6448859                       # Number of write requests responded to by this memory (Count)
system.mem_ctrl.dram.numWrites::total         6448859                       # Number of write requests responded to by this memory (Count)
system.mem_ctrl.dram.bwRead::cpu.inst           87801                       # Total read bandwidth from this memory ((Byte/Second))
system.mem_ctrl.dram.bwRead::cpu.data       533378845                       # Total read bandwidth from this memory ((Byte/Second))
system.mem_ctrl.dram.bwRead::total          533466646                       # Total read bandwidth from this memory ((Byte/Second))
system.mem_ctrl.dram.bwInstRead::cpu.inst        87801                       # Instruction read bandwidth from this memory ((Byte/Second))
system.mem_ctrl.dram.bwInstRead::total          87801                       # Instruction read bandwidth from this memory ((Byte/Second))
system.mem_ctrl.dram.bwWrite::writebacks    530659331                       # Write bandwidth from this memory ((Byte/Second))
system.mem_ctrl.dram.bwWrite::total         530659331                       # Write bandwidth from this memory ((Byte/Second))
system.mem_ctrl.dram.bwTotal::writebacks    530659331                       # Total bandwidth to/from this memory ((Byte/Second))
system.mem_ctrl.dram.bwTotal::cpu.inst          87801                       # Total bandwidth to/from this memory ((Byte/Second))
system.mem_ctrl.dram.bwTotal::cpu.data      533378845                       # Total bandwidth to/from this memory ((Byte/Second))
system.mem_ctrl.dram.bwTotal::total        1064125977                       # Total bandwidth to/from this memory ((Byte/Second))
system.mem_ctrl.dram.readBursts               6482975                       # Number of DRAM read bursts (Count)
system.mem_ctrl.dram.writeBursts              6448833                       # Number of DRAM write bursts (Count)
system.mem_ctrl.dram.perBankRdBursts::0        405129                       # Per bank write bursts (Count)
system.mem_ctrl.dram.perBankRdBursts::1        405064                       # Per bank write bursts (Count)
system.mem_ctrl.dram.perBankRdBursts::2        405060                       # Per bank write bursts (Count)
system.mem_ctrl.dram.perBankRdBursts::3        405230                       # Per bank write bursts (Count)
system.mem_ctrl.dram.perBankRdBursts::4        405272                       # Per bank write bursts (Count)
system.mem_ctrl.dram.perBankRdBursts::5        405252                       # Per bank write bursts (Count)
system.mem_ctrl.dram.perBankRdBursts::6        405191                       # Per bank write bursts (Count)
system.mem_ctrl.dram.perBankRdBursts::7        405066                       # Per bank write bursts (Count)
system.mem_ctrl.dram.perBankRdBursts::8        404886                       # Per bank write bursts (Count)
system.mem_ctrl.dram.perBankRdBursts::9        405174                       # Per bank write bursts (Count)
system.mem_ctrl.dram.perBankRdBursts::10       405269                       # Per bank write bursts (Count)
system.mem_ctrl.dram.perBankRdBursts::11       405340                       # Per bank write bursts (Count)
system.mem_ctrl.dram.perBankRdBursts::12       405130                       # Per bank write bursts (Count)
system.mem_ctrl.dram.perBankRdBursts::13       405381                       # Per bank write bursts (Count)
system.mem_ctrl.dram.perBankRdBursts::14       405266                       # Per bank write bursts (Count)
system.mem_ctrl.dram.perBankRdBursts::15       405265                       # Per bank write bursts (Count)
system.mem_ctrl.dram.perBankWrBursts::0        402944                       # Per bank write bursts (Count)
system.mem_ctrl.dram.perBankWrBursts::1        402956                       # Per bank write bursts (Count)
system.mem_ctrl.dram.perBankWrBursts::2        402972                       # Per bank write bursts (Count)
system.mem_ctrl.dram.perBankWrBursts::3        403073                       # Per bank write bursts (Count)
system.mem_ctrl.dram.perBankWrBursts::4        403088                       # Per bank write bursts (Count)
system.mem_ctrl.dram.perBankWrBursts::5        403071                       # Per bank write bursts (Count)
system.mem_ctrl.dram.perBankWrBursts::6        403090                       # Per bank write bursts (Count)
system.mem_ctrl.dram.perBankWrBursts::7        402865                       # Per bank write bursts (Count)
system.mem_ctrl.dram.perBankWrBursts::8        402800                       # Per bank write bursts (Count)
system.mem_ctrl.dram.perBankWrBursts::9        403023                       # Per bank write bursts (Count)
system.mem_ctrl.dram.perBankWrBursts::10       403144                       # Per bank write bursts (Count)
system.mem_ctrl.dram.perBankWrBursts::11       403236                       # Per bank write bursts (Count)
system.mem_ctrl.dram.perBankWrBursts::12       403044                       # Per bank write bursts (Count)
system.mem_ctrl.dram.perBankWrBursts::13       403262                       # Per bank write bursts (Count)
system.mem_ctrl.dram.perBankWrBursts::14       403139                       # Per bank write bursts (Count)
system.mem_ctrl.dram.perBankWrBursts::15       403126                       # Per bank write bursts (Count)
system.mem_ctrl.dram.totQLat              68790352750                       # Total ticks spent queuing (Tick)
system.mem_ctrl.dram.totBusLat            32414875000                       # Total ticks spent in databus transfers (Tick)
system.mem_ctrl.dram.totMemAccLat        190346134000                       # Total ticks spent from burst creation until serviced by the DRAM (Tick)
system.mem_ctrl.dram.avgQLat                 10610.92                       # Average queueing delay per DRAM burst ((Tick/Count))
system.mem_ctrl.dram.avgBusLat                5000.00                       # Average bus latency per DRAM burst ((Tick/Count))
system.mem_ctrl.dram.avgMemAccLat            29360.92                       # Average memory access latency per DRAM burst ((Tick/Count))
system.mem_ctrl.dram.readRowHits              5926421                       # Number of row buffer hits during reads (Count)
system.mem_ctrl.dram.writeRowHits             5994038                       # Number of row buffer hits during writes (Count)
system.mem_ctrl.dram.readRowHitRate             91.42                       # Row buffer hit rate for reads (Ratio)
system.mem_ctrl.dram.writeRowHitRate            92.95                       # Row buffer hit rate for writes (Ratio)
system.mem_ctrl.dram.bytesPerActivate::samples      1011348                       # Bytes accessed per row activation (Byte)
system.mem_ctrl.dram.bytesPerActivate::mean   818.348201                       # Bytes accessed per row activation (Byte)
system.mem_ctrl.dram.bytesPerActivate::gmean   646.798422                       # Bytes accessed per row activation (Byte)
system.mem_ctrl.dram.bytesPerActivate::stdev   346.684324                       # Bytes accessed per row activation (Byte)
system.mem_ctrl.dram.bytesPerActivate::0-127        89119      8.81%      8.81% # Bytes accessed per row activation (Byte)
system.mem_ctrl.dram.bytesPerActivate::128-255        58712      5.81%     14.62% # Bytes accessed per row activation (Byte)
system.mem_ctrl.dram.bytesPerActivate::256-383        27008      2.67%     17.29% # Bytes accessed per row activation (Byte)
system.mem_ctrl.dram.bytesPerActivate::384-511        26101      2.58%     19.87% # Bytes accessed per row activation (Byte)
system.mem_ctrl.dram.bytesPerActivate::512-639        26277      2.60%     22.47% # Bytes accessed per row activation (Byte)
system.mem_ctrl.dram.bytesPerActivate::640-767        26253      2.60%     25.06% # Bytes accessed per row activation (Byte)
system.mem_ctrl.dram.bytesPerActivate::768-895        27672      2.74%     27.80% # Bytes accessed per row activation (Byte)
system.mem_ctrl.dram.bytesPerActivate::896-1023        71782      7.10%     34.90% # Bytes accessed per row activation (Byte)
system.mem_ctrl.dram.bytesPerActivate::1024-1151       658424     65.10%    100.00% # Bytes accessed per row activation (Byte)
system.mem_ctrl.dram.bytesPerActivate::total      1011348                       # Bytes accessed per row activation (Byte)
system.mem_ctrl.dram.bytesRead              414910400                       # Total bytes read (Byte)
system.mem_ctrl.dram.bytesWritten           412725312                       # Total bytes written (Byte)
system.mem_ctrl.dram.avgRdBW               533.466646                       # Average DRAM read bandwidth in MiBytes/s ((Byte/Second))
system.mem_ctrl.dram.avgWrBW               530.657192                       # Average DRAM write bandwidth in MiBytes/s ((Byte/Second))
system.mem_ctrl.dram.peakBW                  12800.00                       # Theoretical peak bandwidth in MiByte/s ((Byte/Second))
system.mem_ctrl.dram.busUtil                     8.31                       # Data bus utilization in percentage (Ratio)
system.mem_ctrl.dram.busUtilRead                 4.17                       # Data bus utilization in percentage for reads (Ratio)
system.mem_ctrl.dram.busUtilWrite                4.15                       # Data bus utilization in percentage for writes (Ratio)
system.mem_ctrl.dram.pageHitRate                92.18                       # Row buffer hit rate, read and write combined (Ratio)
system.mem_ctrl.dram.power_state.pwrStateResidencyTicks::UNDEFINED 777762590000                       # Cumulative time (in ticks) in various power states (Tick)
system.mem_ctrl.dram.rank0.actEnergy       3605300160                       # Energy for activate commands per rank (pJ) (Joule)
system.mem_ctrl.dram.rank0.preEnergy       1916262480                       # Energy for precharge commands per rank (pJ) (Joule)
system.mem_ctrl.dram.rank0.readEnergy     23142624960                       # Energy for read commands per rank (pJ) (Joule)
system.mem_ctrl.dram.rank0.writeEnergy    16829587980                       # Energy for write commands per rank (pJ) (Joule)
system.mem_ctrl.dram.rank0.refreshEnergy 61395774960.000008                       # Energy for refresh commands per rank (pJ) (Joule)
system.mem_ctrl.dram.rank0.actBackEnergy 181589410410                       # Energy for active background per rank (pJ) (Joule)
system.mem_ctrl.dram.rank0.preBackEnergy 145743436320                       # Energy for precharge background per rank (pJ) (Joule)
system.mem_ctrl.dram.rank0.actPowerDownEnergy            0                       # Energy for active power-down per rank (pJ) (Joule)
system.mem_ctrl.dram.rank0.prePowerDownEnergy            0                       # Energy for precharge power-down per rank (pJ) (Joule)
system.mem_ctrl.dram.rank0.selfRefreshEnergy            0                       # Energy for self refresh per rank (pJ) (Joule)
system.mem_ctrl.dram.rank0.totalEnergy   434222397270                       # Total energy per rank (pJ) (Joule)
system.mem_ctrl.dram.rank0.averagePower    558.296841                       # Core power per rank (mW) (Watt)
system.mem_ctrl.dram.rank0.totalIdleTime            0                       # Total Idle time Per DRAM Rank (Tick)
system.mem_ctrl.dram.rank0.pwrStateTime::IDLE 372910427500                       # Time in different power states (Tick)
system.mem_ctrl.dram.rank0.pwrStateTime::REF  25971140000                       # Time in different power states (Tick)
system.mem_ctrl.dram.rank0.pwrStateTime::SREF            0                       # Time in different power states (Tick)
system.mem_ctrl.dram.rank0.pwrStateTime::PRE_PDN            0                       # Time in different power states (Tick)
system.mem_ctrl.dram.rank0.pwrStateTime::ACT 378881022500                       # Time in different power states (Tick)
system.mem_ctrl.dram.rank0.pwrStateTime::ACT_PDN            0                       # Time in different power states (Tick)
system.mem_ctrl.dram.rank1.actEnergy       3615731700                       # Energy for activate commands per rank (pJ) (Joule)
system.mem_ctrl.dram.rank1.preEnergy       1921803180                       # Energy for precharge commands per rank (pJ) (Joule)
system.mem_ctrl.dram.rank1.readEnergy     23145816540                       # Energy for read commands per rank (pJ) (Joule)
system.mem_ctrl.dram.rank1.writeEnergy    16833320280                       # Energy for write commands per rank (pJ) (Joule)
system.mem_ctrl.dram.rank1.refreshEnergy 61395774960.000008                       # Energy for refresh commands per rank (pJ) (Joule)
system.mem_ctrl.dram.rank1.actBackEnergy 181581943980                       # Energy for active background per rank (pJ) (Joule)
system.mem_ctrl.dram.rank1.preBackEnergy 145749723840                       # Energy for precharge background per rank (pJ) (Joule)
system.mem_ctrl.dram.rank1.actPowerDownEnergy            0                       # Energy for active power-down per rank (pJ) (Joule)
system.mem_ctrl.dram.rank1.prePowerDownEnergy            0                       # Energy for precharge power-down per rank (pJ) (Joule)
system.mem_ctrl.dram.rank1.selfRefreshEnergy            0                       # Energy for self refresh per rank (pJ) (Joule)
system.mem_ctrl.dram.rank1.totalEnergy   434244114480                       # Total energy per rank (pJ) (Joule)
system.mem_ctrl.dram.rank1.averagePower    558.324764                       # Core power per rank (mW) (Watt)
system.mem_ctrl.dram.rank1.totalIdleTime            0                       # Total Idle time Per DRAM Rank (Tick)
system.mem_ctrl.dram.rank1.pwrStateTime::IDLE 372919384750                       # Time in different power states (Tick)
system.mem_ctrl.dram.rank1.pwrStateTime::REF  25971140000                       # Time in different power states (Tick)
system.mem_ctrl.dram.rank1.pwrStateTime::SREF            0                       # Time in different power states (Tick)
system.mem_ctrl.dram.rank1.pwrStateTime::PRE_PDN            0                       # Time in different power states (Tick)
system.mem_ctrl.dram.rank1.pwrStateTime::ACT 378872065250                       # Time in different power states (Tick)
system.mem_ctrl.dram.rank1.pwrStateTime::ACT_PDN            0                       # Time in different power states (Tick)
system.mem_ctrl.power_state.pwrStateResidencyTicks::UNDEFINED 777762590000                       # Cumulative time (in ticks) in various power states (Tick)
system.membus.transDist::ReadResp                1432                       # Transaction distribution (Count)
system.membus.transDist::WritebackDirty       6448859                       # Transaction distribution (Count)
system.membus.transDist::CleanEvict               850                       # Transaction distribution (Count)
system.membus.transDist::ReadExReq            6481543                       # Transaction distribution (Count)
system.membus.transDist::ReadExResp           6481543                       # Transaction distribution (Count)
system.membus.transDist::ReadSharedReq           1432                       # Transaction distribution (Count)
system.membus.pktCount_system.l2cache.mem_side_port::system.mem_ctrl.port     19415659                       # Packet count per connected requestor and responder (Count)
system.membus.pktCount_system.l2cache.mem_side_port::total     19415659                       # Packet count per connected requestor and responder (Count)
system.membus.pktCount::total                19415659                       # Packet count per connected requestor and responder (Count)
system.membus.pktSize_system.l2cache.mem_side_port::system.mem_ctrl.port    827637376                       # Cumulative packet size per connected requestor and responder (Byte)
system.membus.pktSize_system.l2cache.mem_side_port::total    827637376                       # Cumulative packet size per connected requestor and responder (Byte)
system.membus.pktSize::total                827637376                       # Cumulative packet size per connected requestor and responder (Byte)
system.membus.snoops                                0                       # Total snoops (Count)
system.membus.snoopTraffic                          0                       # Total snoop traffic (Byte)
system.membus.snoopFanout::samples            6482975                       # Request fanout histogram (Count)
system.membus.snoopFanout::mean                     0                       # Request fanout histogram (Count)
system.membus.snoopFanout::stdev                    0                       # Request fanout histogram (Count)
system.membus.snoopFanout::underflows               0      0.00%      0.00% # Request fanout histogram (Count)
system.membus.snoopFanout::0                  6482975    100.00%    100.00% # Request fanout histogram (Count)
system.membus.snoopFanout::1                        0      0.00%    100.00% # Request fanout histogram (Count)
system.membus.snoopFanout::overflows                0      0.00%    100.00% # Request fanout histogram (Count)
system.membus.snoopFanout::min_value                0                       # Request fanout histogram (Count)
system.membus.snoopFanout::max_value                0                       # Request fanout histogram (Count)
system.membus.snoopFanout::total              6482975                       # Request fanout histogram (Count)
system.membus.power_state.pwrStateResidencyTicks::UNDEFINED 777762590000                       # Cumulative time (in ticks) in various power states (Tick)
system.membus.reqLayer2.occupancy         38728120000                       # Layer occupancy (ticks) (Tick)
system.membus.reqLayer2.utilization               0.0                       # Layer utilization (Ratio)
system.membus.respLayer0.occupancy        34113287000                       # Layer occupancy (ticks) (Tick)
system.membus.respLayer0.utilization              0.0                       # Layer utilization (Ratio)
system.membus.snoop_filter.totRequests       12932684                       # Total number of requests made to the snoop filter. (Count)
system.membus.snoop_filter.hitSingleRequests      6449709                       # Number of requests hitting in the snoop filter with a single holder of the requested data. (Count)
system.membus.snoop_filter.hitMultiRequests            0                       # Number of requests hitting in the snoop filter with multiple (>1) holders of the requested data. (Count)
system.membus.snoop_filter.totSnoops                0                       # Total number of snoops made to the snoop filter. (Count)
system.membus.snoop_filter.hitSingleSnoops            0                       # Number of snoops hitting in the snoop filter with a single holder of the requested data. (Count)
system.membus.snoop_filter.hitMultiSnoops            0                       # Number of snoops hitting in the snoop filter with multiple (>1) holders of the requested data. (Count)
system.workload.inst.arm                            0                       # number of arm instructions executed (Count)
system.workload.inst.quiesce                        0                       # number of quiesce instructions executed (Count)

---------- End Simulation Statistics   ----------
