
---------- Begin Simulation Statistics ----------
simSeconds                                   0.412295                       # Number of seconds simulated (Second)
simTicks                                 412294631000                       # Number of ticks simulated (Tick)
finalTick                                412294631000                       # Number of ticks from beginning of simulation (restored from checkpoints and never reset) (Tick)
simFreq                                  1000000000000                       # The number of ticks per simulated second ((Tick/Second))
hostSeconds                                   1874.80                       # Real time elapsed on the host (Second)
hostTickRate                                219913709                       # The number of ticks simulated per host second (ticks/s) ((Tick/Second))
hostMemory                                    8531448                       # Number of bytes of host memory used (Byte)
simInsts                                     50000002                       # Number of instructions simulated (Count)
simOps                                       62368876                       # Number of ops (including micro ops) simulated (Count)
hostInstRate                                    26669                       # Simulator instruction rate (inst/s) ((Count/Second))
hostOpRate                                      33267                       # Simulator op (including micro ops) rate (op/s) ((Count/Second))
system.clk_domain.clock                          1000                       # Clock period in ticks (Tick)
system.clk_domain.voltage_domain.voltage            1                       # Voltage in Volts (Volt)
system.cpu.numCycles                        412294632                       # Number of cpu cycles simulated (Cycle)
system.cpu.numWorkItemsStarted                      0                       # Number of work items this cpu started (Count)
system.cpu.numWorkItemsCompleted                    0                       # Number of work items this cpu completed (Count)
system.cpu.instsAdded                       866962584                       # Number of instructions added to the IQ (excludes non-spec) (Count)
system.cpu.nonSpecInstsAdded                 29326723                       # Number of non-speculative instructions added to the IQ (Count)
system.cpu.instsIssued                      860301256                       # Number of instructions issued (Count)
system.cpu.squashedInstsIssued                   2109                       # Number of squashed instructions issued (Count)
system.cpu.squashedInstsExamined            833920426                       # Number of squashed instructions iterated over during squash; mainly for profiling (Count)
system.cpu.squashedOperandsExamined          92767910                       # Number of squashed operands that are examined and possibly removed from graph (Count)
system.cpu.squashedNonSpecRemoved            28437971                       # Number of squashed non-spec instructions that were removed (Count)
system.cpu.numIssuedDist::samples           412267402                       # Number of insts issued each cycle (Count)
system.cpu.numIssuedDist::mean               2.086755                       # Number of insts issued each cycle (Count)
system.cpu.numIssuedDist::stdev              2.780053                       # Number of insts issued each cycle (Count)
system.cpu.numIssuedDist::underflows                0      0.00%      0.00% # Number of insts issued each cycle (Count)
system.cpu.numIssuedDist::0                 240535075     58.34%     58.34% # Number of insts issued each cycle (Count)
system.cpu.numIssuedDist::1                  11863872      2.88%     61.22% # Number of insts issued each cycle (Count)
system.cpu.numIssuedDist::2                  10020327      2.43%     63.65% # Number of insts issued each cycle (Count)
system.cpu.numIssuedDist::3                   9020848      2.19%     65.84% # Number of insts issued each cycle (Count)
system.cpu.numIssuedDist::4                  36745233      8.91%     74.75% # Number of insts issued each cycle (Count)
system.cpu.numIssuedDist::5                  38728644      9.39%     84.15% # Number of insts issued each cycle (Count)
system.cpu.numIssuedDist::6                  20697687      5.02%     89.17% # Number of insts issued each cycle (Count)
system.cpu.numIssuedDist::7                  20721816      5.03%     94.19% # Number of insts issued each cycle (Count)
system.cpu.numIssuedDist::8                  23933900      5.81%    100.00% # Number of insts issued each cycle (Count)
system.cpu.numIssuedDist::overflows                 0      0.00%    100.00% # Number of insts issued each cycle (Count)
system.cpu.numIssuedDist::min_value                 0                       # Number of insts issued each cycle (Count)
system.cpu.numIssuedDist::max_value                 8                       # Number of insts issued each cycle (Count)
system.cpu.numIssuedDist::total             412267402                       # Number of insts issued each cycle (Count)
system.cpu.statFuBusy::No_OpClass                   0      0.00%      0.00% # attempts to use FU when none available (Count)
system.cpu.statFuBusy::IntAlu                    1715      0.00%      0.00% # attempts to use FU when none available (Count)
system.cpu.statFuBusy::IntMult                      0      0.00%      0.00% # attempts to use FU when none available (Count)
system.cpu.statFuBusy::IntDiv                       0      0.00%      0.00% # attempts to use FU when none available (Count)
system.cpu.statFuBusy::FloatAdd                     0      0.00%      0.00% # attempts to use FU when none available (Count)
system.cpu.statFuBusy::FloatCmp                     0      0.00%      0.00% # attempts to use FU when none available (Count)
system.cpu.statFuBusy::FloatCvt                     0      0.00%      0.00% # attempts to use FU when none available (Count)
system.cpu.statFuBusy::FloatMult                    0      0.00%      0.00% # attempts to use FU when none available (Count)
system.cpu.statFuBusy::FloatMultAcc                 0      0.00%      0.00% # attempts to use FU when none available (Count)
system.cpu.statFuBusy::FloatDiv                     0      0.00%      0.00% # attempts to use FU when none available (Count)
system.cpu.statFuBusy::FloatMisc                    0      0.00%      0.00% # attempts to use FU when none available (Count)
system.cpu.statFuBusy::FloatSqrt                    0      0.00%      0.00% # attempts to use FU when none available (Count)
system.cpu.statFuBusy::SimdAdd                      0      0.00%      0.00% # attempts to use FU when none available (Count)
system.cpu.statFuBusy::SimdAddAcc                   0      0.00%      0.00% # attempts to use FU when none available (Count)
system.cpu.statFuBusy::SimdAlu                     14      0.00%      0.00% # attempts to use FU when none available (Count)
system.cpu.statFuBusy::SimdCmp                      0      0.00%      0.00% # attempts to use FU when none available (Count)
system.cpu.statFuBusy::SimdCvt                      5      0.00%      0.00% # attempts to use FU when none available (Count)
system.cpu.statFuBusy::SimdMisc                     3      0.00%      0.00% # attempts to use FU when none available (Count)
system.cpu.statFuBusy::SimdMult                     0      0.00%      0.00% # attempts to use FU when none available (Count)
system.cpu.statFuBusy::SimdMultAcc                  0      0.00%      0.00% # attempts to use FU when none available (Count)
system.cpu.statFuBusy::SimdShift                    0      0.00%      0.00% # attempts to use FU when none available (Count)
system.cpu.statFuBusy::SimdShiftAcc                 0      0.00%      0.00% # attempts to use FU when none available (Count)
system.cpu.statFuBusy::SimdDiv                      0      0.00%      0.00% # attempts to use FU when none available (Count)
system.cpu.statFuBusy::SimdSqrt                     0      0.00%      0.00% # attempts to use FU when none available (Count)
system.cpu.statFuBusy::SimdFloatAdd                 0      0.00%      0.00% # attempts to use FU when none available (Count)
system.cpu.statFuBusy::SimdFloatAlu                 0      0.00%      0.00% # attempts to use FU when none available (Count)
system.cpu.statFuBusy::SimdFloatCmp                 0      0.00%      0.00% # attempts to use FU when none available (Count)
system.cpu.statFuBusy::SimdFloatCvt                 0      0.00%      0.00% # attempts to use FU when none available (Count)
system.cpu.statFuBusy::SimdFloatDiv                 0      0.00%      0.00% # attempts to use FU when none available (Count)
system.cpu.statFuBusy::SimdFloatMisc                0      0.00%      0.00% # attempts to use FU when none available (Count)
system.cpu.statFuBusy::SimdFloatMult                0      0.00%      0.00% # attempts to use FU when none available (Count)
system.cpu.statFuBusy::SimdFloatMultAcc             0      0.00%      0.00% # attempts to use FU when none available (Count)
system.cpu.statFuBusy::SimdFloatSqrt                0      0.00%      0.00% # attempts to use FU when none available (Count)
system.cpu.statFuBusy::SimdReduceAdd                0      0.00%      0.00% # attempts to use FU when none available (Count)
system.cpu.statFuBusy::SimdReduceAlu                0      0.00%      0.00% # attempts to use FU when none available (Count)
system.cpu.statFuBusy::SimdReduceCmp                0      0.00%      0.00% # attempts to use FU when none available (Count)
system.cpu.statFuBusy::SimdFloatReduceAdd            0      0.00%      0.00% # attempts to use FU when none available (Count)
system.cpu.statFuBusy::SimdFloatReduceCmp            0      0.00%      0.00% # attempts to use FU when none available (Count)
system.cpu.statFuBusy::SimdAes                      0      0.00%      0.00% # attempts to use FU when none available (Count)
system.cpu.statFuBusy::SimdAesMix                   0      0.00%      0.00% # attempts to use FU when none available (Count)
system.cpu.statFuBusy::SimdSha1Hash                 0      0.00%      0.00% # attempts to use FU when none available (Count)
system.cpu.statFuBusy::SimdSha1Hash2                0      0.00%      0.00% # attempts to use FU when none available (Count)
system.cpu.statFuBusy::SimdSha256Hash               0      0.00%      0.00% # attempts to use FU when none available (Count)
system.cpu.statFuBusy::SimdSha256Hash2              0      0.00%      0.00% # attempts to use FU when none available (Count)
system.cpu.statFuBusy::SimdShaSigma2                0      0.00%      0.00% # attempts to use FU when none available (Count)
system.cpu.statFuBusy::SimdShaSigma3                0      0.00%      0.00% # attempts to use FU when none available (Count)
system.cpu.statFuBusy::SimdPredAlu                  0      0.00%      0.00% # attempts to use FU when none available (Count)
system.cpu.statFuBusy::MemRead               66702823     91.18%     91.18% # attempts to use FU when none available (Count)
system.cpu.statFuBusy::MemWrite               6450476      8.82%    100.00% # attempts to use FU when none available (Count)
system.cpu.statFuBusy::FloatMemRead                 4      0.00%    100.00% # attempts to use FU when none available (Count)
system.cpu.statFuBusy::FloatMemWrite               17      0.00%    100.00% # attempts to use FU when none available (Count)
system.cpu.statFuBusy::IprAccess                    0      0.00%    100.00% # attempts to use FU when none available (Count)
system.cpu.statFuBusy::InstPrefetch                 0      0.00%    100.00% # attempts to use FU when none available (Count)
system.cpu.statIssuedInstType_0::No_OpClass    233826620     27.18%     27.18% # Number of instructions issued per FU type, per thread (Count)
system.cpu.statIssuedInstType_0::IntAlu     124086342     14.42%     41.60% # Number of instructions issued per FU type, per thread (Count)
system.cpu.statIssuedInstType_0::IntMult       131077      0.02%     41.62% # Number of instructions issued per FU type, per thread (Count)
system.cpu.statIssuedInstType_0::IntDiv            80      0.00%     41.62% # Number of instructions issued per FU type, per thread (Count)
system.cpu.statIssuedInstType_0::FloatAdd           28      0.00%     41.62% # Number of instructions issued per FU type, per thread (Count)
system.cpu.statIssuedInstType_0::FloatCmp            0      0.00%     41.62% # Number of instructions issued per FU type, per thread (Count)
system.cpu.statIssuedInstType_0::FloatCvt            0      0.00%     41.62% # Number of instructions issued per FU type, per thread (Count)
system.cpu.statIssuedInstType_0::FloatMult            0      0.00%     41.62% # Number of instructions issued per FU type, per thread (Count)
system.cpu.statIssuedInstType_0::FloatMultAcc            0      0.00%     41.62% # Number of instructions issued per FU type, per thread (Count)
system.cpu.statIssuedInstType_0::FloatDiv            0      0.00%     41.62% # Number of instructions issued per FU type, per thread (Count)
system.cpu.statIssuedInstType_0::FloatMisc            0      0.00%     41.62% # Number of instructions issued per FU type, per thread (Count)
system.cpu.statIssuedInstType_0::FloatSqrt            0      0.00%     41.62% # Number of instructions issued per FU type, per thread (Count)
system.cpu.statIssuedInstType_0::SimdAdd            0      0.00%     41.62% # Number of instructions issued per FU type, per thread (Count)
system.cpu.statIssuedInstType_0::SimdAddAcc            0      0.00%     41.62% # Number of instructions issued per FU type, per thread (Count)
system.cpu.statIssuedInstType_0::SimdAlu          221      0.00%     41.62% # Number of instructions issued per FU type, per thread (Count)
system.cpu.statIssuedInstType_0::SimdCmp            0      0.00%     41.62% # Number of instructions issued per FU type, per thread (Count)
system.cpu.statIssuedInstType_0::SimdCvt          137      0.00%     41.62% # Number of instructions issued per FU type, per thread (Count)
system.cpu.statIssuedInstType_0::SimdMisc          291      0.00%     41.62% # Number of instructions issued per FU type, per thread (Count)
system.cpu.statIssuedInstType_0::SimdMult            0      0.00%     41.62% # Number of instructions issued per FU type, per thread (Count)
system.cpu.statIssuedInstType_0::SimdMultAcc            0      0.00%     41.62% # Number of instructions issued per FU type, per thread (Count)
system.cpu.statIssuedInstType_0::SimdShift            0      0.00%     41.62% # Number of instructions issued per FU type, per thread (Count)
system.cpu.statIssuedInstType_0::SimdShiftAcc            0      0.00%     41.62% # Number of instructions issued per FU type, per thread (Count)
system.cpu.statIssuedInstType_0::SimdDiv            0      0.00%     41.62% # Number of instructions issued per FU type, per thread (Count)
system.cpu.statIssuedInstType_0::SimdSqrt            0      0.00%     41.62% # Number of instructions issued per FU type, per thread (Count)
system.cpu.statIssuedInstType_0::SimdFloatAdd            0      0.00%     41.62% # Number of instructions issued per FU type, per thread (Count)
system.cpu.statIssuedInstType_0::SimdFloatAlu            0      0.00%     41.62% # Number of instructions issued per FU type, per thread (Count)
system.cpu.statIssuedInstType_0::SimdFloatCmp            0      0.00%     41.62% # Number of instructions issued per FU type, per thread (Count)
system.cpu.statIssuedInstType_0::SimdFloatCvt            0      0.00%     41.62% # Number of instructions issued per FU type, per thread (Count)
system.cpu.statIssuedInstType_0::SimdFloatDiv            0      0.00%     41.62% # Number of instructions issued per FU type, per thread (Count)
system.cpu.statIssuedInstType_0::SimdFloatMisc            0      0.00%     41.62% # Number of instructions issued per FU type, per thread (Count)
system.cpu.statIssuedInstType_0::SimdFloatMult            0      0.00%     41.62% # Number of instructions issued per FU type, per thread (Count)
system.cpu.statIssuedInstType_0::SimdFloatMultAcc            0      0.00%     41.62% # Number of instructions issued per FU type, per thread (Count)
system.cpu.statIssuedInstType_0::SimdFloatSqrt            0      0.00%     41.62% # Number of instructions issued per FU type, per thread (Count)
system.cpu.statIssuedInstType_0::SimdReduceAdd            0      0.00%     41.62% # Number of instructions issued per FU type, per thread (Count)
system.cpu.statIssuedInstType_0::SimdReduceAlu            0      0.00%     41.62% # Number of instructions issued per FU type, per thread (Count)
system.cpu.statIssuedInstType_0::SimdReduceCmp            0      0.00%     41.62% # Number of instructions issued per FU type, per thread (Count)
system.cpu.statIssuedInstType_0::SimdFloatReduceAdd            0      0.00%     41.62% # Number of instructions issued per FU type, per thread (Count)
system.cpu.statIssuedInstType_0::SimdFloatReduceCmp            0      0.00%     41.62% # Number of instructions issued per FU type, per thread (Count)
system.cpu.statIssuedInstType_0::SimdAes            0      0.00%     41.62% # Number of instructions issued per FU type, per thread (Count)
system.cpu.statIssuedInstType_0::SimdAesMix            0      0.00%     41.62% # Number of instructions issued per FU type, per thread (Count)
system.cpu.statIssuedInstType_0::SimdSha1Hash            0      0.00%     41.62% # Number of instructions issued per FU type, per thread (Count)
system.cpu.statIssuedInstType_0::SimdSha1Hash2            0      0.00%     41.62% # Number of instructions issued per FU type, per thread (Count)
system.cpu.statIssuedInstType_0::SimdSha256Hash            0      0.00%     41.62% # Number of instructions issued per FU type, per thread (Count)
system.cpu.statIssuedInstType_0::SimdSha256Hash2            0      0.00%     41.62% # Number of instructions issued per FU type, per thread (Count)
system.cpu.statIssuedInstType_0::SimdShaSigma2            0      0.00%     41.62% # Number of instructions issued per FU type, per thread (Count)
system.cpu.statIssuedInstType_0::SimdShaSigma3            0      0.00%     41.62% # Number of instructions issued per FU type, per thread (Count)
system.cpu.statIssuedInstType_0::SimdPredAlu            0      0.00%     41.62% # Number of instructions issued per FU type, per thread (Count)
system.cpu.statIssuedInstType_0::MemRead    262431459     30.50%     72.12% # Number of instructions issued per FU type, per thread (Count)
system.cpu.statIssuedInstType_0::MemWrite    239824660     27.88%    100.00% # Number of instructions issued per FU type, per thread (Count)
system.cpu.statIssuedInstType_0::FloatMemRead          131      0.00%    100.00% # Number of instructions issued per FU type, per thread (Count)
system.cpu.statIssuedInstType_0::FloatMemWrite          210      0.00%    100.00% # Number of instructions issued per FU type, per thread (Count)
system.cpu.statIssuedInstType_0::IprAccess            0      0.00%    100.00% # Number of instructions issued per FU type, per thread (Count)
system.cpu.statIssuedInstType_0::InstPrefetch            0      0.00%    100.00% # Number of instructions issued per FU type, per thread (Count)
system.cpu.statIssuedInstType_0::total      860301256                       # Number of instructions issued per FU type, per thread (Count)
system.cpu.issueRate                         2.086618                       # Inst issue rate ((Count/Cycle))
system.cpu.fuBusy                            73155057                       # FU busy when requested (Count)
system.cpu.fuBusyRate                        0.085034                       # FU busy rate (busy events/executed inst) ((Count/Count))
system.cpu.intInstQueueReads               2206024860                       # Number of integer instruction queue reads (Count)
system.cpu.intInstQueueWrites              1730209430                       # Number of integer instruction queue writes (Count)
system.cpu.intInstQueueWakeupAccesses       608993323                       # Number of integer instruction queue wakeup accesses (Count)
system.cpu.fpInstQueueReads                      2220                       # Number of floating instruction queue reads (Count)
system.cpu.fpInstQueueWrites                     1509                       # Number of floating instruction queue writes (Count)
system.cpu.fpInstQueueWakeupAccesses             1036                       # Number of floating instruction queue wakeup accesses (Count)
system.cpu.vecInstQueueReads                        0                       # Number of vector instruction queue reads (Count)
system.cpu.vecInstQueueWrites                       0                       # Number of vector instruction queue writes (Count)
system.cpu.vecInstQueueWakeupAccesses               0                       # Number of vector instruction queue wakeup accesses (Count)
system.cpu.intAluAccesses                   699628564                       # Number of integer alu accesses (Count)
system.cpu.fpAluAccesses                         1129                       # Number of floating point alu accesses (Count)
system.cpu.vecAluAccesses                           0                       # Number of vector alu accesses (Count)
system.cpu.numInsts                         857433519                       # Number of executed instructions (Count)
system.cpu.numLoadInsts                     261811165                       # Number of load instructions executed (Count)
system.cpu.numSquashedInsts                   2867737                       # Number of squashed instructions skipped in execute (Count)
system.cpu.numSwp                                   0                       # Number of swp insts executed (Count)
system.cpu.numNop                                   0                       # Number of nop insts executed (Count)
system.cpu.numRefs                          499439401                       # Number of memory reference insts executed (Count)
system.cpu.numBranches                       19223677                       # Number of branches executed (Count)
system.cpu.numStoreInsts                    237628236                       # Number of stores executed (Count)
system.cpu.numRate                           2.079662                       # Inst execution rate ((Count/Cycle))
system.cpu.timesIdled                             387                       # Number of times that the entire CPU went into an idle state and unscheduled itself (Count)
system.cpu.idleCycles                           27230                       # Total number of cycles that the CPU has spent unscheduled due to idling (Cycle)
system.cpu.committedInsts                    50000002                       # Number of Instructions Simulated (Count)
system.cpu.committedOps                      62368876                       # Number of Ops (including micro ops) Simulated (Count)
system.cpu.cpi                               8.245892                       # CPI: Cycles Per Instruction ((Cycle/Count))
system.cpu.totalCpi                          8.245892                       # CPI: Total CPI of All Threads ((Cycle/Count))
system.cpu.ipc                               0.121273                       # IPC: Instructions Per Cycle ((Count/Cycle))
system.cpu.totalIpc                          0.121273                       # IPC: Total IPC of All Threads ((Count/Cycle))
system.cpu.intRegfileReads                  887510483                       # Number of integer regfile reads (Count)
system.cpu.intRegfileWrites                 356857674                       # Number of integer regfile writes (Count)
system.cpu.fpRegfileReads                        1694                       # Number of floating regfile reads (Count)
system.cpu.fpRegfileWrites                        734                       # Number of floating regfile writes (Count)
system.cpu.ccRegfileReads                   107170735                       # number of cc regfile reads (Count)
system.cpu.ccRegfileWrites                   48742180                       # number of cc regfile writes (Count)
system.cpu.miscRegfileReads                 538131879                       # number of misc regfile reads (Count)
system.cpu.MemDepUnit__0.insertedLoads      263752235                       # Number of loads inserted to the mem dependence unit. (Count)
system.cpu.MemDepUnit__0.insertedStores     241830727                       # Number of stores inserted to the mem dependence unit. (Count)
system.cpu.MemDepUnit__0.conflictingLoads      8302895                       # Number of conflicting loads. (Count)
system.cpu.MemDepUnit__0.conflictingStores       742046                       # Number of conflicting stores. (Count)
system.cpu.MemDepUnit__1.insertedLoads              0                       # Number of loads inserted to the mem dependence unit. (Count)
system.cpu.MemDepUnit__1.insertedStores             0                       # Number of stores inserted to the mem dependence unit. (Count)
system.cpu.MemDepUnit__1.conflictingLoads            0                       # Number of conflicting loads. (Count)
system.cpu.MemDepUnit__1.conflictingStores            0                       # Number of conflicting stores. (Count)
system.cpu.MemDepUnit__2.insertedLoads              0                       # Number of loads inserted to the mem dependence unit. (Count)
system.cpu.MemDepUnit__2.insertedStores             0                       # Number of stores inserted to the mem dependence unit. (Count)
system.cpu.MemDepUnit__2.conflictingLoads            0                       # Number of conflicting loads. (Count)
system.cpu.MemDepUnit__2.conflictingStores            0                       # Number of conflicting stores. (Count)
system.cpu.MemDepUnit__3.insertedLoads              0                       # Number of loads inserted to the mem dependence unit. (Count)
system.cpu.MemDepUnit__3.insertedStores             0                       # Number of stores inserted to the mem dependence unit. (Count)
system.cpu.MemDepUnit__3.conflictingLoads            0                       # Number of conflicting loads. (Count)
system.cpu.MemDepUnit__3.conflictingStores            0                       # Number of conflicting stores. (Count)
system.cpu.branchPred.lookups                24752488                       # Number of BP lookups (Count)
system.cpu.branchPred.condPredicted          23394156                       # Number of conditional branches predicted (Count)
system.cpu.branchPred.condIncorrect            358928                       # Number of conditional branches incorrect (Count)
system.cpu.branchPred.BTBLookups             24082931                       # Number of BTB lookups (Count)
system.cpu.branchPred.BTBHits                24076171                       # Number of BTB hits (Count)
system.cpu.branchPred.BTBHitRatio            0.999719                       # BTB Hit Ratio (Ratio)
system.cpu.branchPred.RASUsed                   23291                       # Number of times the RAS was used to get a target. (Count)
system.cpu.branchPred.RASIncorrect                  5                       # Number of incorrect RAS predictions. (Count)
system.cpu.branchPred.indirectLookups             269                       # Number of indirect predictor lookups. (Count)
system.cpu.branchPred.indirectHits                 35                       # Number of indirect target hits. (Count)
system.cpu.branchPred.indirectMisses              234                       # Number of indirect misses. (Count)
system.cpu.branchPred.indirectMispredicted           76                       # Number of mispredicted indirect branches. (Count)
system.cpu.commit.commitSquashedInsts       558577753                       # The number of squashed insts skipped by commit (Count)
system.cpu.commit.commitNonSpecStalls          888752                       # The number of times commit has been forced to stall to communicate backwards (Count)
system.cpu.commit.branchMispredicts            358224                       # The number of times a branch was mispredicted (Count)
system.cpu.commit.numCommittedDist::samples    339712752                       # Number of insts commited each cycle (Count)
system.cpu.commit.numCommittedDist::mean     0.183593                       # Number of insts commited each cycle (Count)
system.cpu.commit.numCommittedDist::stdev     0.934230                       # Number of insts commited each cycle (Count)
system.cpu.commit.numCommittedDist::underflows            0      0.00%      0.00% # Number of insts commited each cycle (Count)
system.cpu.commit.numCommittedDist::0       316192790     93.08%     93.08% # Number of insts commited each cycle (Count)
system.cpu.commit.numCommittedDist::1        12423278      3.66%     96.73% # Number of insts commited each cycle (Count)
system.cpu.commit.numCommittedDist::2         3145527      0.93%     97.66% # Number of insts commited each cycle (Count)
system.cpu.commit.numCommittedDist::3         3106329      0.91%     98.57% # Number of insts commited each cycle (Count)
system.cpu.commit.numCommittedDist::4          794858      0.23%     98.81% # Number of insts commited each cycle (Count)
system.cpu.commit.numCommittedDist::5          175541      0.05%     98.86% # Number of insts commited each cycle (Count)
system.cpu.commit.numCommittedDist::6          334947      0.10%     98.96% # Number of insts commited each cycle (Count)
system.cpu.commit.numCommittedDist::7           47118      0.01%     98.97% # Number of insts commited each cycle (Count)
system.cpu.commit.numCommittedDist::8         3492364      1.03%    100.00% # Number of insts commited each cycle (Count)
system.cpu.commit.numCommittedDist::overflows            0      0.00%    100.00% # Number of insts commited each cycle (Count)
system.cpu.commit.numCommittedDist::min_value            0                       # Number of insts commited each cycle (Count)
system.cpu.commit.numCommittedDist::max_value            8                       # Number of insts commited each cycle (Count)
system.cpu.commit.numCommittedDist::total    339712752                       # Number of insts commited each cycle (Count)
system.cpu.commit.instsCommitted             50000002                       # Number of instructions committed (Count)
system.cpu.commit.opsCommitted               62368876                       # Number of ops (including micro ops) committed (Count)
system.cpu.commit.memRefs                    36814375                       # Number of memory references committed (Count)
system.cpu.commit.loads                      25317338                       # Number of loads committed (Count)
system.cpu.commit.amos                              0                       # Number of atomic instructions committed (Count)
system.cpu.commit.membars                          48                       # Number of memory barriers committed (Count)
system.cpu.commit.branches                    3201950                       # Number of branches committed (Count)
system.cpu.commit.vectorInstructions                0                       # Number of committed Vector instructions. (Count)
system.cpu.commit.floating                        835                       # Number of committed floating point instructions. (Count)
system.cpu.commit.integer                    61431731                       # Number of committed integer instructions. (Count)
system.cpu.commit.functionCalls                 21390                       # Number of function calls committed. (Count)
system.cpu.commit.committedInstType_0::No_OpClass       888800      1.43%      1.43% # Class of committed instruction (Count)
system.cpu.commit.committedInstType_0::IntAlu     24534233     39.34%     40.76% # Class of committed instruction (Count)
system.cpu.commit.committedInstType_0::IntMult       130868      0.21%     40.97% # Class of committed instruction (Count)
system.cpu.commit.committedInstType_0::IntDiv           70      0.00%     40.97% # Class of committed instruction (Count)
system.cpu.commit.committedInstType_0::FloatAdd           21      0.00%     40.97% # Class of committed instruction (Count)
system.cpu.commit.committedInstType_0::FloatCmp            0      0.00%     40.97% # Class of committed instruction (Count)
system.cpu.commit.committedInstType_0::FloatCvt            0      0.00%     40.97% # Class of committed instruction (Count)
system.cpu.commit.committedInstType_0::FloatMult            0      0.00%     40.97% # Class of committed instruction (Count)
system.cpu.commit.committedInstType_0::FloatMultAcc            0      0.00%     40.97% # Class of committed instruction (Count)
system.cpu.commit.committedInstType_0::FloatDiv            0      0.00%     40.97% # Class of committed instruction (Count)
system.cpu.commit.committedInstType_0::FloatMisc            0      0.00%     40.97% # Class of committed instruction (Count)
system.cpu.commit.committedInstType_0::FloatSqrt            0      0.00%     40.97% # Class of committed instruction (Count)
system.cpu.commit.committedInstType_0::SimdAdd            0      0.00%     40.97% # Class of committed instruction (Count)
system.cpu.commit.committedInstType_0::SimdAddAcc            0      0.00%     40.97% # Class of committed instruction (Count)
system.cpu.commit.committedInstType_0::SimdAlu          142      0.00%     40.97% # Class of committed instruction (Count)
system.cpu.commit.committedInstType_0::SimdCmp            0      0.00%     40.97% # Class of committed instruction (Count)
system.cpu.commit.committedInstType_0::SimdCvt          126      0.00%     40.97% # Class of committed instruction (Count)
system.cpu.commit.committedInstType_0::SimdMisc          241      0.00%     40.97% # Class of committed instruction (Count)
system.cpu.commit.committedInstType_0::SimdMult            0      0.00%     40.97% # Class of committed instruction (Count)
system.cpu.commit.committedInstType_0::SimdMultAcc            0      0.00%     40.97% # Class of committed instruction (Count)
system.cpu.commit.committedInstType_0::SimdShift            0      0.00%     40.97% # Class of committed instruction (Count)
system.cpu.commit.committedInstType_0::SimdShiftAcc            0      0.00%     40.97% # Class of committed instruction (Count)
system.cpu.commit.committedInstType_0::SimdDiv            0      0.00%     40.97% # Class of committed instruction (Count)
system.cpu.commit.committedInstType_0::SimdSqrt            0      0.00%     40.97% # Class of committed instruction (Count)
system.cpu.commit.committedInstType_0::SimdFloatAdd            0      0.00%     40.97% # Class of committed instruction (Count)
system.cpu.commit.committedInstType_0::SimdFloatAlu            0      0.00%     40.97% # Class of committed instruction (Count)
system.cpu.commit.committedInstType_0::SimdFloatCmp            0      0.00%     40.97% # Class of committed instruction (Count)
system.cpu.commit.committedInstType_0::SimdFloatCvt            0      0.00%     40.97% # Class of committed instruction (Count)
system.cpu.commit.committedInstType_0::SimdFloatDiv            0      0.00%     40.97% # Class of committed instruction (Count)
system.cpu.commit.committedInstType_0::SimdFloatMisc            0      0.00%     40.97% # Class of committed instruction (Count)
system.cpu.commit.committedInstType_0::SimdFloatMult            0      0.00%     40.97% # Class of committed instruction (Count)
system.cpu.commit.committedInstType_0::SimdFloatMultAcc            0      0.00%     40.97% # Class of committed instruction (Count)
system.cpu.commit.committedInstType_0::SimdFloatSqrt            0      0.00%     40.97% # Class of committed instruction (Count)
system.cpu.commit.committedInstType_0::SimdReduceAdd            0      0.00%     40.97% # Class of committed instruction (Count)
system.cpu.commit.committedInstType_0::SimdReduceAlu            0      0.00%     40.97% # Class of committed instruction (Count)
system.cpu.commit.committedInstType_0::SimdReduceCmp            0      0.00%     40.97% # Class of committed instruction (Count)
system.cpu.commit.committedInstType_0::SimdFloatReduceAdd            0      0.00%     40.97% # Class of committed instruction (Count)
system.cpu.commit.committedInstType_0::SimdFloatReduceCmp            0      0.00%     40.97% # Class of committed instruction (Count)
system.cpu.commit.committedInstType_0::SimdAes            0      0.00%     40.97% # Class of committed instruction (Count)
system.cpu.commit.committedInstType_0::SimdAesMix            0      0.00%     40.97% # Class of committed instruction (Count)
system.cpu.commit.committedInstType_0::SimdSha1Hash            0      0.00%     40.97% # Class of committed instruction (Count)
system.cpu.commit.committedInstType_0::SimdSha1Hash2            0      0.00%     40.97% # Class of committed instruction (Count)
system.cpu.commit.committedInstType_0::SimdSha256Hash            0      0.00%     40.97% # Class of committed instruction (Count)
system.cpu.commit.committedInstType_0::SimdSha256Hash2            0      0.00%     40.97% # Class of committed instruction (Count)
system.cpu.commit.committedInstType_0::SimdShaSigma2            0      0.00%     40.97% # Class of committed instruction (Count)
system.cpu.commit.committedInstType_0::SimdShaSigma3            0      0.00%     40.97% # Class of committed instruction (Count)
system.cpu.commit.committedInstType_0::SimdPredAlu            0      0.00%     40.97% # Class of committed instruction (Count)
system.cpu.commit.committedInstType_0::MemRead     25317256     40.59%     81.57% # Class of committed instruction (Count)
system.cpu.commit.committedInstType_0::MemWrite     11496873     18.43%    100.00% # Class of committed instruction (Count)
system.cpu.commit.committedInstType_0::FloatMemRead           82      0.00%    100.00% # Class of committed instruction (Count)
system.cpu.commit.committedInstType_0::FloatMemWrite          164      0.00%    100.00% # Class of committed instruction (Count)
system.cpu.commit.committedInstType_0::IprAccess            0      0.00%    100.00% # Class of committed instruction (Count)
system.cpu.commit.committedInstType_0::InstPrefetch            0      0.00%    100.00% # Class of committed instruction (Count)
system.cpu.commit.committedInstType_0::total     62368876                       # Class of committed instruction (Count)
system.cpu.commit.commitEligibleSamples       3492364                       # number cycles where commit BW limit reached (Cycle)
system.cpu.dcache.demandHits::cpu.data      258681454                       # number of demand (read+write) hits (Count)
system.cpu.dcache.demandHits::total         258681454                       # number of demand (read+write) hits (Count)
system.cpu.dcache.overallHits::cpu.data     258681454                       # number of overall hits (Count)
system.cpu.dcache.overallHits::total        258681454                       # number of overall hits (Count)
system.cpu.dcache.demandMisses::cpu.data      6104431                       # number of demand (read+write) misses (Count)
system.cpu.dcache.demandMisses::total         6104431                       # number of demand (read+write) misses (Count)
system.cpu.dcache.overallMisses::cpu.data      6169976                       # number of overall misses (Count)
system.cpu.dcache.overallMisses::total        6169976                       # number of overall misses (Count)
system.cpu.dcache.demandMissLatency::cpu.data 485832611978                       # number of demand (read+write) miss ticks (Tick)
system.cpu.dcache.demandMissLatency::total 485832611978                       # number of demand (read+write) miss ticks (Tick)
system.cpu.dcache.overallMissLatency::cpu.data 485832611978                       # number of overall miss ticks (Tick)
system.cpu.dcache.overallMissLatency::total 485832611978                       # number of overall miss ticks (Tick)
system.cpu.dcache.demandAccesses::cpu.data    264785885                       # number of demand (read+write) accesses (Count)
system.cpu.dcache.demandAccesses::total     264785885                       # number of demand (read+write) accesses (Count)
system.cpu.dcache.overallAccesses::cpu.data    264851430                       # number of overall (read+write) accesses (Count)
system.cpu.dcache.overallAccesses::total    264851430                       # number of overall (read+write) accesses (Count)
system.cpu.dcache.demandMissRate::cpu.data     0.023054                       # miss rate for demand accesses (Ratio)
system.cpu.dcache.demandMissRate::total      0.023054                       # miss rate for demand accesses (Ratio)
system.cpu.dcache.overallMissRate::cpu.data     0.023296                       # miss rate for overall accesses (Ratio)
system.cpu.dcache.overallMissRate::total     0.023296                       # miss rate for overall accesses (Ratio)
system.cpu.dcache.demandAvgMissLatency::cpu.data 79586.879101                       # average overall miss latency in ticks ((Tick/Count))
system.cpu.dcache.demandAvgMissLatency::total 79586.879101                       # average overall miss latency in ticks ((Tick/Count))
system.cpu.dcache.overallAvgMissLatency::cpu.data 78741.410336                       # average overall miss latency ((Tick/Count))
system.cpu.dcache.overallAvgMissLatency::total 78741.410336                       # average overall miss latency ((Tick/Count))
system.cpu.dcache.blockedCycles::no_mshrs      2883541                       # number of cycles access was blocked (Cycle)
system.cpu.dcache.blockedCycles::no_targets            0                       # number of cycles access was blocked (Cycle)
system.cpu.dcache.blockedCauses::no_mshrs        60791                       # number of times access was blocked (Count)
system.cpu.dcache.blockedCauses::no_targets            0                       # number of times access was blocked (Count)
system.cpu.dcache.avgBlocked::no_mshrs      47.433683                       # average number of cycles each access was blocked ((Cycle/Count))
system.cpu.dcache.avgBlocked::no_targets          nan                       # average number of cycles each access was blocked ((Cycle/Count))
system.cpu.dcache.writebacks::writebacks      1124890                       # number of writebacks (Count)
system.cpu.dcache.writebacks::total           1124890                       # number of writebacks (Count)
system.cpu.dcache.demandMshrHits::cpu.data      4051707                       # number of demand (read+write) MSHR hits (Count)
system.cpu.dcache.demandMshrHits::total       4051707                       # number of demand (read+write) MSHR hits (Count)
system.cpu.dcache.overallMshrHits::cpu.data      4051707                       # number of overall MSHR hits (Count)
system.cpu.dcache.overallMshrHits::total      4051707                       # number of overall MSHR hits (Count)
system.cpu.dcache.demandMshrMisses::cpu.data      2052724                       # number of demand (read+write) MSHR misses (Count)
system.cpu.dcache.demandMshrMisses::total      2052724                       # number of demand (read+write) MSHR misses (Count)
system.cpu.dcache.overallMshrMisses::cpu.data      2118263                       # number of overall MSHR misses (Count)
system.cpu.dcache.overallMshrMisses::total      2118263                       # number of overall MSHR misses (Count)
system.cpu.dcache.demandMshrMissLatency::cpu.data 214050870979                       # number of demand (read+write) MSHR miss ticks (Tick)
system.cpu.dcache.demandMshrMissLatency::total 214050870979                       # number of demand (read+write) MSHR miss ticks (Tick)
system.cpu.dcache.overallMshrMissLatency::cpu.data 221239957979                       # number of overall MSHR miss ticks (Tick)
system.cpu.dcache.overallMshrMissLatency::total 221239957979                       # number of overall MSHR miss ticks (Tick)
system.cpu.dcache.demandMshrMissRate::cpu.data     0.007752                       # mshr miss ratio for demand accesses (Ratio)
system.cpu.dcache.demandMshrMissRate::total     0.007752                       # mshr miss ratio for demand accesses (Ratio)
system.cpu.dcache.overallMshrMissRate::cpu.data     0.007998                       # mshr miss ratio for overall accesses (Ratio)
system.cpu.dcache.overallMshrMissRate::total     0.007998                       # mshr miss ratio for overall accesses (Ratio)
system.cpu.dcache.demandAvgMshrMissLatency::cpu.data 104276.498438                       # average overall mshr miss latency ((Tick/Count))
system.cpu.dcache.demandAvgMshrMissLatency::total 104276.498438                       # average overall mshr miss latency ((Tick/Count))
system.cpu.dcache.overallAvgMshrMissLatency::cpu.data 104444.045890                       # average overall mshr miss latency ((Tick/Count))
system.cpu.dcache.overallAvgMshrMissLatency::total 104444.045890                       # average overall mshr miss latency ((Tick/Count))
system.cpu.dcache.replacements                2117751                       # number of replacements (Count)
system.cpu.dcache.LockedRMWReadReq.hits::cpu.data           24                       # number of LockedRMWReadReq hits (Count)
system.cpu.dcache.LockedRMWReadReq.hits::total           24                       # number of LockedRMWReadReq hits (Count)
system.cpu.dcache.LockedRMWReadReq.accesses::cpu.data           24                       # number of LockedRMWReadReq accesses(hits+misses) (Count)
system.cpu.dcache.LockedRMWReadReq.accesses::total           24                       # number of LockedRMWReadReq accesses(hits+misses) (Count)
system.cpu.dcache.LockedRMWReadReq.mshrMissLatency::cpu.data       276000                       # number of LockedRMWReadReq MSHR miss ticks (Tick)
system.cpu.dcache.LockedRMWReadReq.mshrMissLatency::total       276000                       # number of LockedRMWReadReq MSHR miss ticks (Tick)
system.cpu.dcache.LockedRMWReadReq.avgMshrMissLatency::cpu.data          inf                       # average LockedRMWReadReq mshr miss latency ((Tick/Count))
system.cpu.dcache.LockedRMWReadReq.avgMshrMissLatency::total          inf                       # average LockedRMWReadReq mshr miss latency ((Tick/Count))
system.cpu.dcache.LockedRMWWriteReq.hits::cpu.data           24                       # number of LockedRMWWriteReq hits (Count)
system.cpu.dcache.LockedRMWWriteReq.hits::total           24                       # number of LockedRMWWriteReq hits (Count)
system.cpu.dcache.LockedRMWWriteReq.accesses::cpu.data           24                       # number of LockedRMWWriteReq accesses(hits+misses) (Count)
system.cpu.dcache.LockedRMWWriteReq.accesses::total           24                       # number of LockedRMWWriteReq accesses(hits+misses) (Count)
system.cpu.dcache.ReadReq.hits::cpu.data    248276916                       # number of ReadReq hits (Count)
system.cpu.dcache.ReadReq.hits::total       248276916                       # number of ReadReq hits (Count)
system.cpu.dcache.ReadReq.misses::cpu.data      5011956                       # number of ReadReq misses (Count)
system.cpu.dcache.ReadReq.misses::total       5011956                       # number of ReadReq misses (Count)
system.cpu.dcache.ReadReq.missLatency::cpu.data 370119407000                       # number of ReadReq miss ticks (Tick)
system.cpu.dcache.ReadReq.missLatency::total 370119407000                       # number of ReadReq miss ticks (Tick)
system.cpu.dcache.ReadReq.accesses::cpu.data    253288872                       # number of ReadReq accesses(hits+misses) (Count)
system.cpu.dcache.ReadReq.accesses::total    253288872                       # number of ReadReq accesses(hits+misses) (Count)
system.cpu.dcache.ReadReq.missRate::cpu.data     0.019788                       # miss rate for ReadReq accesses (Ratio)
system.cpu.dcache.ReadReq.missRate::total     0.019788                       # miss rate for ReadReq accesses (Ratio)
system.cpu.dcache.ReadReq.avgMissLatency::cpu.data 73847.297742                       # average ReadReq miss latency ((Tick/Count))
system.cpu.dcache.ReadReq.avgMissLatency::total 73847.297742                       # average ReadReq miss latency ((Tick/Count))
system.cpu.dcache.ReadReq.mshrHits::cpu.data      4051705                       # number of ReadReq MSHR hits (Count)
system.cpu.dcache.ReadReq.mshrHits::total      4051705                       # number of ReadReq MSHR hits (Count)
system.cpu.dcache.ReadReq.mshrMisses::cpu.data       960251                       # number of ReadReq MSHR misses (Count)
system.cpu.dcache.ReadReq.mshrMisses::total       960251                       # number of ReadReq MSHR misses (Count)
system.cpu.dcache.ReadReq.mshrMissLatency::cpu.data 100522791000                       # number of ReadReq MSHR miss ticks (Tick)
system.cpu.dcache.ReadReq.mshrMissLatency::total 100522791000                       # number of ReadReq MSHR miss ticks (Tick)
system.cpu.dcache.ReadReq.mshrMissRate::cpu.data     0.003791                       # mshr miss rate for ReadReq accesses (Ratio)
system.cpu.dcache.ReadReq.mshrMissRate::total     0.003791                       # mshr miss rate for ReadReq accesses (Ratio)
system.cpu.dcache.ReadReq.avgMshrMissLatency::cpu.data 104683.870155                       # average ReadReq mshr miss latency ((Tick/Count))
system.cpu.dcache.ReadReq.avgMshrMissLatency::total 104683.870155                       # average ReadReq mshr miss latency ((Tick/Count))
system.cpu.dcache.SoftPFReq.misses::cpu.data        65545                       # number of SoftPFReq misses (Count)
system.cpu.dcache.SoftPFReq.misses::total        65545                       # number of SoftPFReq misses (Count)
system.cpu.dcache.SoftPFReq.accesses::cpu.data        65545                       # number of SoftPFReq accesses(hits+misses) (Count)
system.cpu.dcache.SoftPFReq.accesses::total        65545                       # number of SoftPFReq accesses(hits+misses) (Count)
system.cpu.dcache.SoftPFReq.missRate::cpu.data            1                       # miss rate for SoftPFReq accesses (Ratio)
system.cpu.dcache.SoftPFReq.missRate::total            1                       # miss rate for SoftPFReq accesses (Ratio)
system.cpu.dcache.SoftPFReq.mshrMisses::cpu.data        65539                       # number of SoftPFReq MSHR misses (Count)
system.cpu.dcache.SoftPFReq.mshrMisses::total        65539                       # number of SoftPFReq MSHR misses (Count)
system.cpu.dcache.SoftPFReq.mshrMissLatency::cpu.data   7189087000                       # number of SoftPFReq MSHR miss ticks (Tick)
system.cpu.dcache.SoftPFReq.mshrMissLatency::total   7189087000                       # number of SoftPFReq MSHR miss ticks (Tick)
system.cpu.dcache.SoftPFReq.mshrMissRate::cpu.data     0.999908                       # mshr miss rate for SoftPFReq accesses (Ratio)
system.cpu.dcache.SoftPFReq.mshrMissRate::total     0.999908                       # mshr miss rate for SoftPFReq accesses (Ratio)
system.cpu.dcache.SoftPFReq.avgMshrMissLatency::cpu.data 109691.740796                       # average SoftPFReq mshr miss latency ((Tick/Count))
system.cpu.dcache.SoftPFReq.avgMshrMissLatency::total 109691.740796                       # average SoftPFReq mshr miss latency ((Tick/Count))
system.cpu.dcache.WriteReq.hits::cpu.data     10404538                       # number of WriteReq hits (Count)
system.cpu.dcache.WriteReq.hits::total       10404538                       # number of WriteReq hits (Count)
system.cpu.dcache.WriteReq.misses::cpu.data      1092475                       # number of WriteReq misses (Count)
system.cpu.dcache.WriteReq.misses::total      1092475                       # number of WriteReq misses (Count)
system.cpu.dcache.WriteReq.missLatency::cpu.data 115713204978                       # number of WriteReq miss ticks (Tick)
system.cpu.dcache.WriteReq.missLatency::total 115713204978                       # number of WriteReq miss ticks (Tick)
system.cpu.dcache.WriteReq.accesses::cpu.data     11497013                       # number of WriteReq accesses(hits+misses) (Count)
system.cpu.dcache.WriteReq.accesses::total     11497013                       # number of WriteReq accesses(hits+misses) (Count)
system.cpu.dcache.WriteReq.missRate::cpu.data     0.095023                       # miss rate for WriteReq accesses (Ratio)
system.cpu.dcache.WriteReq.missRate::total     0.095023                       # miss rate for WriteReq accesses (Ratio)
system.cpu.dcache.WriteReq.avgMissLatency::cpu.data 105918.400859                       # average WriteReq miss latency ((Tick/Count))
system.cpu.dcache.WriteReq.avgMissLatency::total 105918.400859                       # average WriteReq miss latency ((Tick/Count))
system.cpu.dcache.WriteReq.mshrHits::cpu.data            2                       # number of WriteReq MSHR hits (Count)
system.cpu.dcache.WriteReq.mshrHits::total            2                       # number of WriteReq MSHR hits (Count)
system.cpu.dcache.WriteReq.mshrMisses::cpu.data      1092473                       # number of WriteReq MSHR misses (Count)
system.cpu.dcache.WriteReq.mshrMisses::total      1092473                       # number of WriteReq MSHR misses (Count)
system.cpu.dcache.WriteReq.mshrMissLatency::cpu.data 113528079979                       # number of WriteReq MSHR miss ticks (Tick)
system.cpu.dcache.WriteReq.mshrMissLatency::total 113528079979                       # number of WriteReq MSHR miss ticks (Tick)
system.cpu.dcache.WriteReq.mshrMissRate::cpu.data     0.095022                       # mshr miss rate for WriteReq accesses (Ratio)
system.cpu.dcache.WriteReq.mshrMissRate::total     0.095022                       # mshr miss rate for WriteReq accesses (Ratio)
system.cpu.dcache.WriteReq.avgMshrMissLatency::cpu.data 103918.430917                       # average WriteReq mshr miss latency ((Tick/Count))
system.cpu.dcache.WriteReq.avgMshrMissLatency::total 103918.430917                       # average WriteReq mshr miss latency ((Tick/Count))
system.cpu.dcache.power_state.pwrStateResidencyTicks::UNDEFINED 412294631000                       # Cumulative time (in ticks) in various power states (Tick)
system.cpu.dcache.tags.tagsInUse           494.120158                       # Average ticks per tags in use ((Tick/Count))
system.cpu.dcache.tags.totalRefs            260799765                       # Total number of references to valid blocks. (Count)
system.cpu.dcache.tags.sampledRefs            2118263                       # Sample count of references to valid blocks. (Count)
system.cpu.dcache.tags.avgRefs             123.119634                       # Average number of references to valid blocks. ((Count/Count))
system.cpu.dcache.tags.warmupTick              240000                       # The tick when the warmup percentage was hit. (Tick)
system.cpu.dcache.tags.occupancies::cpu.data   494.120158                       # Average occupied blocks per tick, per requestor ((Count/Tick))
system.cpu.dcache.tags.avgOccs::cpu.data     0.965078                       # Average percentage of cache occupancy ((Ratio/Tick))
system.cpu.dcache.tags.avgOccs::total        0.965078                       # Average percentage of cache occupancy ((Ratio/Tick))
system.cpu.dcache.tags.occupanciesTaskId::1024          512                       # Occupied blocks per task id (Count)
system.cpu.dcache.tags.ageTaskId_1024::0            2                       # Occupied blocks per task id, per block age (Count)
system.cpu.dcache.tags.ageTaskId_1024::1           21                       # Occupied blocks per task id, per block age (Count)
system.cpu.dcache.tags.ageTaskId_1024::2          270                       # Occupied blocks per task id, per block age (Count)
system.cpu.dcache.tags.ageTaskId_1024::3           98                       # Occupied blocks per task id, per block age (Count)
system.cpu.dcache.tags.ageTaskId_1024::4          121                       # Occupied blocks per task id, per block age (Count)
system.cpu.dcache.tags.ratioOccsTaskId::1024            1                       # Ratio of occupied blocks and all blocks, per task id (Ratio)
system.cpu.dcache.tags.tagAccesses         1061524175                       # Number of tag accesses (Count)
system.cpu.dcache.tags.dataAccesses        1061524175                       # Number of data accesses (Count)
system.cpu.dcache.tags.power_state.pwrStateResidencyTicks::UNDEFINED 412294631000                       # Cumulative time (in ticks) in various power states (Tick)
system.cpu.decode.idleCycles                 48931849                       # Number of cycles decode is idle (Cycle)
system.cpu.decode.blockedCycles             217659663                       # Number of cycles decode is blocked (Cycle)
system.cpu.decode.runCycles                 128365260                       # Number of cycles decode is running (Cycle)
system.cpu.decode.unblockCycles               9792571                       # Number of cycles decode is unblocking (Cycle)
system.cpu.decode.squashCycles                7518059                       # Number of cycles decode is squashing (Cycle)
system.cpu.decode.branchResolved             19225003                       # Number of times decode resolved a branch (Count)
system.cpu.decode.branchMispred                   737                       # Number of times decode detected a branch misprediction (Count)
system.cpu.decode.decodedInsts              969742175                       # Number of instructions handled by decode (Count)
system.cpu.decode.squashedInsts                  3332                       # Number of squashed instructions handled by decode (Count)
system.cpu.fetch.icacheStallCycles           95292054                       # Number of cycles fetch is stalled on an Icache miss (Cycle)
system.cpu.fetch.insts                      776296073                       # Number of instructions fetch has processed (Count)
system.cpu.fetch.branches                    24752488                       # Number of branches that fetch encountered (Count)
system.cpu.fetch.predictedBranches           24099497                       # Number of branches that fetch has predicted taken (Count)
system.cpu.fetch.cycles                     309455837                       # Number of cycles fetch has run and was not squashing or blocked (Cycle)
system.cpu.fetch.squashCycles                15037568                       # Number of cycles fetch has spent squashing (Cycle)
system.cpu.fetch.tlbCycles                         30                       # Number of cycles fetch has spent waiting for tlb (Cycle)
system.cpu.fetch.miscStallCycles                   24                       # Number of cycles fetch has spent waiting on interrupts, or bad addresses, or out of MSHRs (Cycle)
system.cpu.fetch.pendingTrapStallCycles           659                       # Number of stall cycles due to pending traps (Cycle)
system.cpu.fetch.icacheWaitRetryStallCycles           14                       # Number of stall cycles due to full MSHR (Cycle)
system.cpu.fetch.cacheLines                  89928063                       # Number of cache lines fetched (Count)
system.cpu.fetch.icacheSquashes               2093186                       # Number of outstanding Icache misses that were squashed (Count)
system.cpu.fetch.nisnDist::samples          412267402                       # Number of instructions fetched each cycle (Total) (Count)
system.cpu.fetch.nisnDist::mean              2.739690                       # Number of instructions fetched each cycle (Total) (Count)
system.cpu.fetch.nisnDist::stdev             3.384015                       # Number of instructions fetched each cycle (Total) (Count)
system.cpu.fetch.nisnDist::underflows               0      0.00%      0.00% # Number of instructions fetched each cycle (Total) (Count)
system.cpu.fetch.nisnDist::0                224361702     54.42%     54.42% # Number of instructions fetched each cycle (Total) (Count)
system.cpu.fetch.nisnDist::1                  5647879      1.37%     55.79% # Number of instructions fetched each cycle (Total) (Count)
system.cpu.fetch.nisnDist::2                  2495520      0.61%     56.40% # Number of instructions fetched each cycle (Total) (Count)
system.cpu.fetch.nisnDist::3                 40040828      9.71%     66.11% # Number of instructions fetched each cycle (Total) (Count)
system.cpu.fetch.nisnDist::4                 19959047      4.84%     70.95% # Number of instructions fetched each cycle (Total) (Count)
system.cpu.fetch.nisnDist::5                  3156296      0.77%     71.72% # Number of instructions fetched each cycle (Total) (Count)
system.cpu.fetch.nisnDist::6                 12324876      2.99%     74.71% # Number of instructions fetched each cycle (Total) (Count)
system.cpu.fetch.nisnDist::7                  5093677      1.24%     75.94% # Number of instructions fetched each cycle (Total) (Count)
system.cpu.fetch.nisnDist::8                 99187577     24.06%    100.00% # Number of instructions fetched each cycle (Total) (Count)
system.cpu.fetch.nisnDist::overflows                0      0.00%    100.00% # Number of instructions fetched each cycle (Total) (Count)
system.cpu.fetch.nisnDist::min_value                0                       # Number of instructions fetched each cycle (Total) (Count)
system.cpu.fetch.nisnDist::max_value                8                       # Number of instructions fetched each cycle (Total) (Count)
system.cpu.fetch.nisnDist::total            412267402                       # Number of instructions fetched each cycle (Total) (Count)
system.cpu.fetch.branchRate                  0.060036                       # Number of branch fetches per cycle (Ratio)
system.cpu.fetch.rate                        1.882867                       # Number of inst fetches per cycle ((Count/Cycle))
system.cpu.icache.demandHits::cpu.inst       89927101                       # number of demand (read+write) hits (Count)
system.cpu.icache.demandHits::total          89927101                       # number of demand (read+write) hits (Count)
system.cpu.icache.overallHits::cpu.inst      89927101                       # number of overall hits (Count)
system.cpu.icache.overallHits::total         89927101                       # number of overall hits (Count)
system.cpu.icache.demandMisses::cpu.inst          962                       # number of demand (read+write) misses (Count)
system.cpu.icache.demandMisses::total             962                       # number of demand (read+write) misses (Count)
system.cpu.icache.overallMisses::cpu.inst          962                       # number of overall misses (Count)
system.cpu.icache.overallMisses::total            962                       # number of overall misses (Count)
system.cpu.icache.demandMissLatency::cpu.inst     92235999                       # number of demand (read+write) miss ticks (Tick)
system.cpu.icache.demandMissLatency::total     92235999                       # number of demand (read+write) miss ticks (Tick)
system.cpu.icache.overallMissLatency::cpu.inst     92235999                       # number of overall miss ticks (Tick)
system.cpu.icache.overallMissLatency::total     92235999                       # number of overall miss ticks (Tick)
system.cpu.icache.demandAccesses::cpu.inst     89928063                       # number of demand (read+write) accesses (Count)
system.cpu.icache.demandAccesses::total      89928063                       # number of demand (read+write) accesses (Count)
system.cpu.icache.overallAccesses::cpu.inst     89928063                       # number of overall (read+write) accesses (Count)
system.cpu.icache.overallAccesses::total     89928063                       # number of overall (read+write) accesses (Count)
system.cpu.icache.demandMissRate::cpu.inst     0.000011                       # miss rate for demand accesses (Ratio)
system.cpu.icache.demandMissRate::total      0.000011                       # miss rate for demand accesses (Ratio)
system.cpu.icache.overallMissRate::cpu.inst     0.000011                       # miss rate for overall accesses (Ratio)
system.cpu.icache.overallMissRate::total     0.000011                       # miss rate for overall accesses (Ratio)
system.cpu.icache.demandAvgMissLatency::cpu.inst 95879.416840                       # average overall miss latency in ticks ((Tick/Count))
system.cpu.icache.demandAvgMissLatency::total 95879.416840                       # average overall miss latency in ticks ((Tick/Count))
system.cpu.icache.overallAvgMissLatency::cpu.inst 95879.416840                       # average overall miss latency ((Tick/Count))
system.cpu.icache.overallAvgMissLatency::total 95879.416840                       # average overall miss latency ((Tick/Count))
system.cpu.icache.blockedCycles::no_mshrs          230                       # number of cycles access was blocked (Cycle)
system.cpu.icache.blockedCycles::no_targets            0                       # number of cycles access was blocked (Cycle)
system.cpu.icache.blockedCauses::no_mshrs            5                       # number of times access was blocked (Count)
system.cpu.icache.blockedCauses::no_targets            0                       # number of times access was blocked (Count)
system.cpu.icache.avgBlocked::no_mshrs             46                       # average number of cycles each access was blocked ((Cycle/Count))
system.cpu.icache.avgBlocked::no_targets          nan                       # average number of cycles each access was blocked ((Cycle/Count))
system.cpu.icache.demandMshrHits::cpu.inst          236                       # number of demand (read+write) MSHR hits (Count)
system.cpu.icache.demandMshrHits::total           236                       # number of demand (read+write) MSHR hits (Count)
system.cpu.icache.overallMshrHits::cpu.inst          236                       # number of overall MSHR hits (Count)
system.cpu.icache.overallMshrHits::total          236                       # number of overall MSHR hits (Count)
system.cpu.icache.demandMshrMisses::cpu.inst          726                       # number of demand (read+write) MSHR misses (Count)
system.cpu.icache.demandMshrMisses::total          726                       # number of demand (read+write) MSHR misses (Count)
system.cpu.icache.overallMshrMisses::cpu.inst          726                       # number of overall MSHR misses (Count)
system.cpu.icache.overallMshrMisses::total          726                       # number of overall MSHR misses (Count)
system.cpu.icache.demandMshrMissLatency::cpu.inst     73753999                       # number of demand (read+write) MSHR miss ticks (Tick)
system.cpu.icache.demandMshrMissLatency::total     73753999                       # number of demand (read+write) MSHR miss ticks (Tick)
system.cpu.icache.overallMshrMissLatency::cpu.inst     73753999                       # number of overall MSHR miss ticks (Tick)
system.cpu.icache.overallMshrMissLatency::total     73753999                       # number of overall MSHR miss ticks (Tick)
system.cpu.icache.demandMshrMissRate::cpu.inst     0.000008                       # mshr miss ratio for demand accesses (Ratio)
system.cpu.icache.demandMshrMissRate::total     0.000008                       # mshr miss ratio for demand accesses (Ratio)
system.cpu.icache.overallMshrMissRate::cpu.inst     0.000008                       # mshr miss ratio for overall accesses (Ratio)
system.cpu.icache.overallMshrMissRate::total     0.000008                       # mshr miss ratio for overall accesses (Ratio)
system.cpu.icache.demandAvgMshrMissLatency::cpu.inst 101589.530303                       # average overall mshr miss latency ((Tick/Count))
system.cpu.icache.demandAvgMshrMissLatency::total 101589.530303                       # average overall mshr miss latency ((Tick/Count))
system.cpu.icache.overallAvgMshrMissLatency::cpu.inst 101589.530303                       # average overall mshr miss latency ((Tick/Count))
system.cpu.icache.overallAvgMshrMissLatency::total 101589.530303                       # average overall mshr miss latency ((Tick/Count))
system.cpu.icache.replacements                    306                       # number of replacements (Count)
system.cpu.icache.ReadReq.hits::cpu.inst     89927101                       # number of ReadReq hits (Count)
system.cpu.icache.ReadReq.hits::total        89927101                       # number of ReadReq hits (Count)
system.cpu.icache.ReadReq.misses::cpu.inst          962                       # number of ReadReq misses (Count)
system.cpu.icache.ReadReq.misses::total           962                       # number of ReadReq misses (Count)
system.cpu.icache.ReadReq.missLatency::cpu.inst     92235999                       # number of ReadReq miss ticks (Tick)
system.cpu.icache.ReadReq.missLatency::total     92235999                       # number of ReadReq miss ticks (Tick)
system.cpu.icache.ReadReq.accesses::cpu.inst     89928063                       # number of ReadReq accesses(hits+misses) (Count)
system.cpu.icache.ReadReq.accesses::total     89928063                       # number of ReadReq accesses(hits+misses) (Count)
system.cpu.icache.ReadReq.missRate::cpu.inst     0.000011                       # miss rate for ReadReq accesses (Ratio)
system.cpu.icache.ReadReq.missRate::total     0.000011                       # miss rate for ReadReq accesses (Ratio)
system.cpu.icache.ReadReq.avgMissLatency::cpu.inst 95879.416840                       # average ReadReq miss latency ((Tick/Count))
system.cpu.icache.ReadReq.avgMissLatency::total 95879.416840                       # average ReadReq miss latency ((Tick/Count))
system.cpu.icache.ReadReq.mshrHits::cpu.inst          236                       # number of ReadReq MSHR hits (Count)
system.cpu.icache.ReadReq.mshrHits::total          236                       # number of ReadReq MSHR hits (Count)
system.cpu.icache.ReadReq.mshrMisses::cpu.inst          726                       # number of ReadReq MSHR misses (Count)
system.cpu.icache.ReadReq.mshrMisses::total          726                       # number of ReadReq MSHR misses (Count)
system.cpu.icache.ReadReq.mshrMissLatency::cpu.inst     73753999                       # number of ReadReq MSHR miss ticks (Tick)
system.cpu.icache.ReadReq.mshrMissLatency::total     73753999                       # number of ReadReq MSHR miss ticks (Tick)
system.cpu.icache.ReadReq.mshrMissRate::cpu.inst     0.000008                       # mshr miss rate for ReadReq accesses (Ratio)
system.cpu.icache.ReadReq.mshrMissRate::total     0.000008                       # mshr miss rate for ReadReq accesses (Ratio)
system.cpu.icache.ReadReq.avgMshrMissLatency::cpu.inst 101589.530303                       # average ReadReq mshr miss latency ((Tick/Count))
system.cpu.icache.ReadReq.avgMshrMissLatency::total 101589.530303                       # average ReadReq mshr miss latency ((Tick/Count))
system.cpu.icache.power_state.pwrStateResidencyTicks::UNDEFINED 412294631000                       # Cumulative time (in ticks) in various power states (Tick)
system.cpu.icache.tags.tagsInUse           360.519696                       # Average ticks per tags in use ((Tick/Count))
system.cpu.icache.tags.totalRefs             89927827                       # Total number of references to valid blocks. (Count)
system.cpu.icache.tags.sampledRefs                726                       # Sample count of references to valid blocks. (Count)
system.cpu.icache.tags.avgRefs           123867.530303                       # Average number of references to valid blocks. ((Count/Count))
system.cpu.icache.tags.warmupTick              107000                       # The tick when the warmup percentage was hit. (Tick)
system.cpu.icache.tags.occupancies::cpu.inst   360.519696                       # Average occupied blocks per tick, per requestor ((Count/Tick))
system.cpu.icache.tags.avgOccs::cpu.inst     0.704140                       # Average percentage of cache occupancy ((Ratio/Tick))
system.cpu.icache.tags.avgOccs::total        0.704140                       # Average percentage of cache occupancy ((Ratio/Tick))
system.cpu.icache.tags.occupanciesTaskId::1024          420                       # Occupied blocks per task id (Count)
system.cpu.icache.tags.ageTaskId_1024::4          420                       # Occupied blocks per task id, per block age (Count)
system.cpu.icache.tags.ratioOccsTaskId::1024     0.820312                       # Ratio of occupied blocks and all blocks, per task id (Ratio)
system.cpu.icache.tags.tagAccesses          179856852                       # Number of tag accesses (Count)
system.cpu.icache.tags.dataAccesses         179856852                       # Number of data accesses (Count)
system.cpu.icache.tags.power_state.pwrStateResidencyTicks::UNDEFINED 412294631000                       # Cumulative time (in ticks) in various power states (Tick)
system.cpu.iew.idleCycles                           0                       # Number of cycles IEW is idle (Cycle)
system.cpu.iew.squashCycles                   7518059                       # Number of cycles IEW is squashing (Cycle)
system.cpu.iew.blockCycles                   65042532                       # Number of cycles IEW is blocking (Cycle)
system.cpu.iew.unblockCycles                  8863196                       # Number of cycles IEW is unblocking (Cycle)
system.cpu.iew.dispatchedInsts              896289307                       # Number of instructions dispatched to IQ (Count)
system.cpu.iew.dispSquashedInsts                 1643                       # Number of squashed instructions skipped by dispatch (Count)
system.cpu.iew.dispLoadInsts                263752235                       # Number of dispatched load instructions (Count)
system.cpu.iew.dispStoreInsts               241830727                       # Number of dispatched store instructions (Count)
system.cpu.iew.dispNonSpecInsts              29326225                       # Number of dispatched non-speculative instructions (Count)
system.cpu.iew.iqFullEvents                       129                       # Number of times the IQ has become full, causing a stall (Count)
system.cpu.iew.lsqFullEvents                  9751417                       # Number of times the LSQ has become full, causing a stall (Count)
system.cpu.iew.memOrderViolationEvents           1424                       # Number of memory order violations (Count)
system.cpu.iew.predictedTakenIncorrect         333641                       # Number of branches that were predicted taken incorrectly (Count)
system.cpu.iew.predictedNotTakenIncorrect        25266                       # Number of branches that were predicted not taken incorrectly (Count)
system.cpu.iew.branchMispredicts               358907                       # Number of branch mispredicts detected at execute (Count)
system.cpu.iew.instsToCommit                850751548                       # Cumulative count of insts sent to commit (Count)
system.cpu.iew.writebackCount               608994359                       # Cumulative count of insts written-back (Count)
system.cpu.iew.producerInst                 291393530                       # Number of instructions producing a value (Count)
system.cpu.iew.consumerInst                 327681464                       # Number of instructions consuming a value (Count)
system.cpu.iew.wbRate                        1.477085                       # Insts written-back per cycle ((Count/Cycle))
system.cpu.iew.wbFanout                      0.889259                       # Average fanout of values written-back ((Count/Count))
system.cpu.interrupts.clk_domain.clock          16000                       # Clock period in ticks (Tick)
system.cpu.lsq0.forwLoads                     8388136                       # Number of loads that had data forwarded from stores (Count)
system.cpu.lsq0.squashedLoads               238434896                       # Number of loads squashed (Count)
system.cpu.lsq0.ignoredResponses                74334                       # Number of memory responses ignored because the instruction is squashed (Count)
system.cpu.lsq0.memOrderViolation                1424                       # Number of memory ordering violations (Count)
system.cpu.lsq0.squashedStores              230333690                       # Number of stores squashed (Count)
system.cpu.lsq0.rescheduledLoads                   10                       # Number of loads that were rescheduled (Count)
system.cpu.lsq0.blockedByCache                  48142                       # Number of times an access to memory failed due to the cache being blocked (Count)
system.cpu.lsq0.loadToUse::samples           25251798                       # Distribution of cycle latency between the first time a load is issued and its completion (Unspecified)
system.cpu.lsq0.loadToUse::mean              3.834256                       # Distribution of cycle latency between the first time a load is issued and its completion (Unspecified)
system.cpu.lsq0.loadToUse::stdev             7.349464                       # Distribution of cycle latency between the first time a load is issued and its completion (Unspecified)
system.cpu.lsq0.loadToUse::0-9               25111849     99.45%     99.45% # Distribution of cycle latency between the first time a load is issued and its completion (Unspecified)
system.cpu.lsq0.loadToUse::10-19                 5013      0.02%     99.47% # Distribution of cycle latency between the first time a load is issued and its completion (Unspecified)
system.cpu.lsq0.loadToUse::20-29                 5643      0.02%     99.49% # Distribution of cycle latency between the first time a load is issued and its completion (Unspecified)
system.cpu.lsq0.loadToUse::30-39                 6305      0.02%     99.51% # Distribution of cycle latency between the first time a load is issued and its completion (Unspecified)
system.cpu.lsq0.loadToUse::40-49                 5136      0.02%     99.53% # Distribution of cycle latency between the first time a load is issued and its completion (Unspecified)
system.cpu.lsq0.loadToUse::50-59                 5025      0.02%     99.55% # Distribution of cycle latency between the first time a load is issued and its completion (Unspecified)
system.cpu.lsq0.loadToUse::60-69                 3512      0.01%     99.57% # Distribution of cycle latency between the first time a load is issued and its completion (Unspecified)
system.cpu.lsq0.loadToUse::70-79                 3381      0.01%     99.58% # Distribution of cycle latency between the first time a load is issued and its completion (Unspecified)
system.cpu.lsq0.loadToUse::80-89                 9685      0.04%     99.62% # Distribution of cycle latency between the first time a load is issued and its completion (Unspecified)
system.cpu.lsq0.loadToUse::90-99                64687      0.26%     99.88% # Distribution of cycle latency between the first time a load is issued and its completion (Unspecified)
system.cpu.lsq0.loadToUse::100-109               8480      0.03%     99.91% # Distribution of cycle latency between the first time a load is issued and its completion (Unspecified)
system.cpu.lsq0.loadToUse::110-119               9358      0.04%     99.95% # Distribution of cycle latency between the first time a load is issued and its completion (Unspecified)
system.cpu.lsq0.loadToUse::120-129               5516      0.02%     99.97% # Distribution of cycle latency between the first time a load is issued and its completion (Unspecified)
[...]
system.mem_ctrl.dram.bytesWritten::total     71675136                       # Number of bytes written to this memory (Byte)
system.mem_ctrl.dram.numReads::cpu.inst           687                       # Number of read requests responded to by this memory (Count)
system.mem_ctrl.dram.numReads::cpu.data       2117277                       # Number of read requests responded to by this memory (Count)
system.mem_ctrl.dram.numReads::total          2117964                       # Number of read requests responded to by this memory (Count)
system.mem_ctrl.dram.numWrites::writebacks      1119924                       # Number of write requests responded to by this memory (Count)
system.mem_ctrl.dram.numWrites::total         1119924                       # Number of write requests responded to by this memory (Count)
system.mem_ctrl.dram.bwRead::cpu.inst          106642                       # Total read bandwidth from this memory ((Byte/Second))
system.mem_ctrl.dram.bwRead::cpu.data       328662364                       # Total read bandwidth from this memory ((Byte/Second))
system.mem_ctrl.dram.bwRead::total          328769006                       # Total read bandwidth from this memory ((Byte/Second))
system.mem_ctrl.dram.bwInstRead::cpu.inst       106642                       # Instruction read bandwidth from this memory ((Byte/Second))
system.mem_ctrl.dram.bwInstRead::total         106642                       # Instruction read bandwidth from this memory ((Byte/Second))
system.mem_ctrl.dram.bwWrite::writebacks    173844456                       # Write bandwidth from this memory ((Byte/Second))
system.mem_ctrl.dram.bwWrite::total         173844456                       # Write bandwidth from this memory ((Byte/Second))
system.mem_ctrl.dram.bwTotal::writebacks    173844456                       # Total bandwidth to/from this memory ((Byte/Second))
system.mem_ctrl.dram.bwTotal::cpu.inst         106642                       # Total bandwidth to/from this memory ((Byte/Second))
system.mem_ctrl.dram.bwTotal::cpu.data      328662364                       # Total bandwidth to/from this memory ((Byte/Second))
system.mem_ctrl.dram.bwTotal::total         502613462                       # Total bandwidth to/from this memory ((Byte/Second))
system.mem_ctrl.dram.readBursts               2117964                       # Number of DRAM read bursts (Count)
system.mem_ctrl.dram.writeBursts              1119893                       # Number of DRAM write bursts (Count)
system.mem_ctrl.dram.perBankRdBursts::0        132415                       # Per bank write bursts (Count)
system.mem_ctrl.dram.perBankRdBursts::1        132247                       # Per bank write bursts (Count)
system.mem_ctrl.dram.perBankRdBursts::2        132255                       # Per bank write bursts (Count)
system.mem_ctrl.dram.perBankRdBursts::3        132231                       # Per bank write bursts (Count)
system.mem_ctrl.dram.perBankRdBursts::4        132734                       # Per bank write bursts (Count)
system.mem_ctrl.dram.perBankRdBursts::5        132762                       # Per bank write bursts (Count)
system.mem_ctrl.dram.perBankRdBursts::6        132638                       # Per bank write bursts (Count)
system.mem_ctrl.dram.perBankRdBursts::7        132578                       # Per bank write bursts (Count)
system.mem_ctrl.dram.perBankRdBursts::8        132547                       # Per bank write bursts (Count)
system.mem_ctrl.dram.perBankRdBursts::9        132409                       # Per bank write bursts (Count)
system.mem_ctrl.dram.perBankRdBursts::10       132296                       # Per bank write bursts (Count)
system.mem_ctrl.dram.perBankRdBursts::11       132157                       # Per bank write bursts (Count)
system.mem_ctrl.dram.perBankRdBursts::12       132135                       # Per bank write bursts (Count)
system.mem_ctrl.dram.perBankRdBursts::13       132109                       # Per bank write bursts (Count)
system.mem_ctrl.dram.perBankRdBursts::14       132221                       # Per bank write bursts (Count)
system.mem_ctrl.dram.perBankRdBursts::15       132230                       # Per bank write bursts (Count)
system.mem_ctrl.dram.perBankWrBursts::0         70101                       # Per bank write bursts (Count)
system.mem_ctrl.dram.perBankWrBursts::1         70020                       # Per bank write bursts (Count)
system.mem_ctrl.dram.perBankWrBursts::2         70048                       # Per bank write bursts (Count)
system.mem_ctrl.dram.perBankWrBursts::3         70039                       # Per bank write bursts (Count)
system.mem_ctrl.dram.perBankWrBursts::4         69890                       # Per bank write bursts (Count)
system.mem_ctrl.dram.perBankWrBursts::5         70016                       # Per bank write bursts (Count)
system.mem_ctrl.dram.perBankWrBursts::6         70016                       # Per bank write bursts (Count)
system.mem_ctrl.dram.perBankWrBursts::7         70013                       # Per bank write bursts (Count)
system.mem_ctrl.dram.perBankWrBursts::8         70005                       # Per bank write bursts (Count)
system.mem_ctrl.dram.perBankWrBursts::9         69941                       # Per bank write bursts (Count)
system.mem_ctrl.dram.perBankWrBursts::10        69915                       # Per bank write bursts (Count)
system.mem_ctrl.dram.perBankWrBursts::11        69889                       # Per bank write bursts (Count)
system.mem_ctrl.dram.perBankWrBursts::12        69888                       # Per bank write bursts (Count)
system.mem_ctrl.dram.perBankWrBursts::13        70003                       # Per bank write bursts (Count)
system.mem_ctrl.dram.perBankWrBursts::14        70076                       # Per bank write bursts (Count)
system.mem_ctrl.dram.perBankWrBursts::15        70033                       # Per bank write bursts (Count)
system.mem_ctrl.dram.totQLat              24200568250                       # Total ticks spent queuing (Tick)
system.mem_ctrl.dram.totBusLat            10589820000                       # Total ticks spent in databus transfers (Tick)
system.mem_ctrl.dram.totMemAccLat         63912393250                       # Total ticks spent from burst creation until serviced by the DRAM (Tick)
system.mem_ctrl.dram.avgQLat                 11426.34                       # Average queueing delay per DRAM burst ((Tick/Count))
system.mem_ctrl.dram.avgBusLat                5000.00                       # Average bus latency per DRAM burst ((Tick/Count))
system.mem_ctrl.dram.avgMemAccLat            30176.34                       # Average memory access latency per DRAM burst ((Tick/Count))
system.mem_ctrl.dram.readRowHits              1868028                       # Number of row buffer hits during reads (Count)
system.mem_ctrl.dram.writeRowHits              968375                       # Number of row buffer hits during writes (Count)
system.mem_ctrl.dram.readRowHitRate             88.20                       # Row buffer hit rate for reads (Ratio)
system.mem_ctrl.dram.writeRowHitRate            86.47                       # Row buffer hit rate for writes (Ratio)
system.mem_ctrl.dram.bytesPerActivate::samples       401453                       # Bytes accessed per row activation (Byte)
system.mem_ctrl.dram.bytesPerActivate::mean   516.181929                       # Bytes accessed per row activation (Byte)
system.mem_ctrl.dram.bytesPerActivate::gmean   362.850264                       # Bytes accessed per row activation (Byte)
system.mem_ctrl.dram.bytesPerActivate::stdev   368.070765                       # Bytes accessed per row activation (Byte)
system.mem_ctrl.dram.bytesPerActivate::0-127        34360      8.56%      8.56% # Bytes accessed per row activation (Byte)
system.mem_ctrl.dram.bytesPerActivate::128-255       115915     28.87%     37.43% # Bytes accessed per row activation (Byte)
system.mem_ctrl.dram.bytesPerActivate::256-383        21876      5.45%     42.88% # Bytes accessed per row activation (Byte)
system.mem_ctrl.dram.bytesPerActivate::384-511        30246      7.53%     50.42% # Bytes accessed per row activation (Byte)
system.mem_ctrl.dram.bytesPerActivate::512-639        52919     13.18%     63.60% # Bytes accessed per row activation (Byte)
system.mem_ctrl.dram.bytesPerActivate::640-767        14041      3.50%     67.10% # Bytes accessed per row activation (Byte)
system.mem_ctrl.dram.bytesPerActivate::768-895        13490      3.36%     70.46% # Bytes accessed per row activation (Byte)
system.mem_ctrl.dram.bytesPerActivate::896-1023        13827      3.44%     73.90% # Bytes accessed per row activation (Byte)
system.mem_ctrl.dram.bytesPerActivate::1024-1151       104779     26.10%    100.00% # Bytes accessed per row activation (Byte)
system.mem_ctrl.dram.bytesPerActivate::total       401453                       # Bytes accessed per row activation (Byte)
system.mem_ctrl.dram.bytesRead              135549696                       # Total bytes read (Byte)
system.mem_ctrl.dram.bytesWritten            71673152                       # Total bytes written (Byte)
system.mem_ctrl.dram.avgRdBW               328.769006                       # Average DRAM read bandwidth in MiBytes/s ((Byte/Second))
system.mem_ctrl.dram.avgWrBW               173.839644                       # Average DRAM write bandwidth in MiBytes/s ((Byte/Second))
system.mem_ctrl.dram.peakBW                  12800.00                       # Theoretical peak bandwidth in MiByte/s ((Byte/Second))
system.mem_ctrl.dram.busUtil                     3.93                       # Data bus utilization in percentage (Ratio)
system.mem_ctrl.dram.busUtilRead                 2.57                       # Data bus utilization in percentage for reads (Ratio)
system.mem_ctrl.dram.busUtilWrite                1.36                       # Data bus utilization in percentage for writes (Ratio)
system.mem_ctrl.dram.pageHitRate                87.60                       # Row buffer hit rate, read and write combined (Ratio)
system.mem_ctrl.dram.power_state.pwrStateResidencyTicks::UNDEFINED 412294631000                       # Cumulative time (in ticks) in various power states (Tick)
system.mem_ctrl.dram.rank0.actEnergy       1437639000                       # Energy for activate commands per rank (pJ) (Joule)
system.mem_ctrl.dram.rank0.preEnergy        764119455                       # Energy for precharge commands per rank (pJ) (Joule)
system.mem_ctrl.dram.rank0.readEnergy      7567400400                       # Energy for read commands per rank (pJ) (Joule)
system.mem_ctrl.dram.rank0.writeEnergy     2923946460                       # Energy for write commands per rank (pJ) (Joule)
system.mem_ctrl.dram.rank0.refreshEnergy 32545802640.000004                       # Energy for refresh commands per rank (pJ) (Joule)
system.mem_ctrl.dram.rank0.actBackEnergy 142340603490                       # Energy for active background per rank (pJ) (Joule)
system.mem_ctrl.dram.rank0.preBackEnergy  38455367040                       # Energy for precharge background per rank (pJ) (Joule)
system.mem_ctrl.dram.rank0.actPowerDownEnergy            0                       # Energy for active power-down per rank (pJ) (Joule)
system.mem_ctrl.dram.rank0.prePowerDownEnergy            0                       # Energy for precharge power-down per rank (pJ) (Joule)
system.mem_ctrl.dram.rank0.selfRefreshEnergy            0                       # Energy for self refresh per rank (pJ) (Joule)
system.mem_ctrl.dram.rank0.totalEnergy   226034878485                       # Total energy per rank (pJ) (Joule)
system.mem_ctrl.dram.rank0.averagePower    548.236289                       # Core power per rank (mW) (Watt)
system.mem_ctrl.dram.rank0.totalIdleTime            0                       # Total Idle time Per DRAM Rank (Tick)
system.mem_ctrl.dram.rank0.pwrStateTime::IDLE  98181752750                       # Time in different power states (Tick)
system.mem_ctrl.dram.rank0.pwrStateTime::REF  13767260000                       # Time in different power states (Tick)
system.mem_ctrl.dram.rank0.pwrStateTime::SREF            0                       # Time in different power states (Tick)
system.mem_ctrl.dram.rank0.pwrStateTime::PRE_PDN            0                       # Time in different power states (Tick)
system.mem_ctrl.dram.rank0.pwrStateTime::ACT 300345618250                       # Time in different power states (Tick)
system.mem_ctrl.dram.rank0.pwrStateTime::ACT_PDN            0                       # Time in different power states (Tick)
system.mem_ctrl.dram.rank1.actEnergy       1428742560                       # Energy for activate commands per rank (pJ) (Joule)
system.mem_ctrl.dram.rank1.preEnergy        759394680                       # Energy for precharge commands per rank (pJ) (Joule)
system.mem_ctrl.dram.rank1.readEnergy      7554862560                       # Energy for read commands per rank (pJ) (Joule)
system.mem_ctrl.dram.rank1.writeEnergy     2921895000                       # Energy for write commands per rank (pJ) (Joule)
system.mem_ctrl.dram.rank1.refreshEnergy 32545802640.000004                       # Energy for refresh commands per rank (pJ) (Joule)
system.mem_ctrl.dram.rank1.actBackEnergy 141586642830                       # Energy for active background per rank (pJ) (Joule)
system.mem_ctrl.dram.rank1.preBackEnergy  39090281280                       # Energy for precharge background per rank (pJ) (Joule)
system.mem_ctrl.dram.rank1.actPowerDownEnergy            0                       # Energy for active power-down per rank (pJ) (Joule)
system.mem_ctrl.dram.rank1.prePowerDownEnergy            0                       # Energy for precharge power-down per rank (pJ) (Joule)
system.mem_ctrl.dram.rank1.selfRefreshEnergy            0                       # Energy for self refresh per rank (pJ) (Joule)
system.mem_ctrl.dram.rank1.totalEnergy   225887621550                       # Total energy per rank (pJ) (Joule)
system.mem_ctrl.dram.rank1.averagePower    547.879125                       # Core power per rank (mW) (Watt)
system.mem_ctrl.dram.rank1.totalIdleTime            0                       # Total Idle time Per DRAM Rank (Tick)
system.mem_ctrl.dram.rank1.pwrStateTime::IDLE  99835706750                       # Time in different power states (Tick)
system.mem_ctrl.dram.rank1.pwrStateTime::REF  13767260000                       # Time in different power states (Tick)
system.mem_ctrl.dram.rank1.pwrStateTime::SREF            0                       # Time in different power states (Tick)
system.mem_ctrl.dram.rank1.pwrStateTime::PRE_PDN            0                       # Time in different power states (Tick)
system.mem_ctrl.dram.rank1.pwrStateTime::ACT 298691664250                       # Time in different power states (Tick)
system.mem_ctrl.dram.rank1.pwrStateTime::ACT_PDN            0                       # Time in different power states (Tick)
system.mem_ctrl.power_state.pwrStateResidencyTicks::UNDEFINED 412294631000                       # Cumulative time (in ticks) in various power states (Tick)
system.membus.transDist::ReadResp             1025497                       # Transaction distribution (Count)
system.membus.transDist::WritebackDirty       1119924                       # Transaction distribution (Count)
system.membus.transDist::CleanEvict            964976                       # Transaction distribution (Count)
system.membus.transDist::ReadExReq            1092467                       # Transaction distribution (Count)
system.membus.transDist::ReadExResp           1092467                       # Transaction distribution (Count)
system.membus.transDist::ReadSharedReq        1025497                       # Transaction distribution (Count)
system.membus.pktCount_system.l2cache.mem_side_port::system.mem_ctrl.port      6320828                       # Packet count per connected requestor and responder (Count)
system.membus.pktCount_system.l2cache.mem_side_port::total      6320828                       # Packet count per connected requestor and responder (Count)
system.membus.pktCount::total                 6320828                       # Packet count per connected requestor and responder (Count)
system.membus.pktSize_system.l2cache.mem_side_port::system.mem_ctrl.port    207224832                       # Cumulative packet size per connected requestor and responder (Byte)
system.membus.pktSize_system.l2cache.mem_side_port::total    207224832                       # Cumulative packet size per connected requestor and responder (Byte)
system.membus.pktSize::total                207224832                       # Cumulative packet size per connected requestor and responder (Byte)
system.membus.snoops                                0                       # Total snoops (Count)
system.membus.snoopTraffic                          0                       # Total snoop traffic (Byte)
system.membus.snoopFanout::samples            2117964                       # Request fanout histogram (Count)
system.membus.snoopFanout::mean                     0                       # Request fanout histogram (Count)
system.membus.snoopFanout::stdev                    0                       # Request fanout histogram (Count)
system.membus.snoopFanout::underflows               0      0.00%      0.00% # Request fanout histogram (Count)
system.membus.snoopFanout::0                  2117964    100.00%    100.00% # Request fanout histogram (Count)
system.membus.snoopFanout::1                        0      0.00%    100.00% # Request fanout histogram (Count)
system.membus.snoopFanout::overflows                0      0.00%    100.00% # Request fanout histogram (Count)
system.membus.snoopFanout::min_value                0                       # Request fanout histogram (Count)
system.membus.snoopFanout::max_value                0                       # Request fanout histogram (Count)
system.membus.snoopFanout::total              2117964                       # Request fanout histogram (Count)
system.membus.power_state.pwrStateResidencyTicks::UNDEFINED 412294631000                       # Cumulative time (in ticks) in various power states (Tick)
system.membus.reqLayer2.occupancy          8682560000                       # Layer occupancy (ticks) (Tick)
system.membus.reqLayer2.utilization               0.0                       # Layer utilization (Ratio)
system.membus.respLayer0.occupancy        11171664000                       # Layer occupancy (ticks) (Tick)
system.membus.respLayer0.utilization              0.0                       # Layer utilization (Ratio)
system.membus.snoop_filter.totRequests        4202864                       # Total number of requests made to the snoop filter. (Count)
system.membus.snoop_filter.hitSingleRequests      2084900                       # Number of requests hitting in the snoop filter with a single holder of the requested data. (Count)
system.membus.snoop_filter.hitMultiRequests            0                       # Number of requests hitting in the snoop filter with multiple (>1) holders of the requested data. (Count)
system.membus.snoop_filter.totSnoops                0                       # Total number of snoops made to the snoop filter. (Count)
system.membus.snoop_filter.hitSingleSnoops            0                       # Number of snoops hitting in the snoop filter with a single holder of the requested data. (Count)
system.membus.snoop_filter.hitMultiSnoops            0                       # Number of snoops hitting in the snoop filter with multiple (>1) holders of the requested data. (Count)
system.workload.inst.arm                            0                       # number of arm instructions executed (Count)
system.workload.inst.quiesce                        0                       # number of quiesce instructions executed (Count)

---------- End Simulation Statistics   ----------
