
---------- Begin Simulation Statistics ----------
simSeconds                                   0.034625                       # Number of seconds simulated (Second)
simTicks                                  34625077000                       # Number of ticks simulated (Tick)
finalTick                                 34625077000                       # Number of ticks from beginning of simulation (restored from checkpoints and never reset) (Tick)
simFreq                                  1000000000000                       # The number of ticks per simulated second ((Tick/Second))
hostSeconds                                    185.56                       # Real time elapsed on the host (Second)
hostTickRate                                186595769                       # The number of ticks simulated per host second (ticks/s) ((Tick/Second))
hostMemory                                    8543592                       # Number of bytes of host memory used (Byte)
simInsts                                     50000003                       # Number of instructions simulated (Count)
simOps                                       65070782                       # Number of ops (including micro ops) simulated (Count)
hostInstRate                                   269452                       # Simulator instruction rate (inst/s) ((Count/Second))
hostOpRate                                     350668                       # Simulator op (including micro ops) rate (op/s) ((Count/Second))
system.clk_domain.clock                          1000                       # Clock period in ticks (Tick)
system.clk_domain.voltage_domain.voltage            1                       # Voltage in Volts (Volt)
system.cpu.numCycles                         34625078                       # Number of cpu cycles simulated (Cycle)
system.cpu.numWorkItemsStarted                      0                       # Number of work items this cpu started (Count)
system.cpu.numWorkItemsCompleted                    0                       # Number of work items this cpu completed (Count)
system.cpu.instsAdded                        92845033                       # Number of instructions added to the IQ (excludes non-spec) (Count)
system.cpu.nonSpecInstsAdded                     1467                       # Number of non-speculative instructions added to the IQ (Count)
system.cpu.instsIssued                       79932030                       # Number of instructions issued (Count)
system.cpu.squashedInstsIssued                  50189                       # Number of squashed instructions issued (Count)
system.cpu.squashedInstsExamined             27775666                       # Number of squashed instructions iterated over during squash; mainly for profiling (Count)
system.cpu.squashedOperandsExamined          64926307                       # Number of squashed operands that are examined and possibly removed from graph (Count)
system.cpu.squashedNonSpecRemoved                1137                       # Number of squashed non-spec instructions that were removed (Count)
system.cpu.numIssuedDist::samples            34559816                       # Number of insts issued each cycle (Count)
system.cpu.numIssuedDist::mean               2.312860                       # Number of insts issued each cycle (Count)
system.cpu.numIssuedDist::stdev              1.918923                       # Number of insts issued each cycle (Count)
system.cpu.numIssuedDist::underflows                0      0.00%      0.00% # Number of insts issued each cycle (Count)
system.cpu.numIssuedDist::0                   7890476     22.83%     22.83% # Number of insts issued each cycle (Count)
system.cpu.numIssuedDist::1                   5755359     16.65%     39.48% # Number of insts issued each cycle (Count)
system.cpu.numIssuedDist::2                   6307310     18.25%     57.74% # Number of insts issued each cycle (Count)
system.cpu.numIssuedDist::3                   5362852     15.52%     73.25% # Number of insts issued each cycle (Count)
system.cpu.numIssuedDist::4                   4010852     11.61%     84.86% # Number of insts issued each cycle (Count)
system.cpu.numIssuedDist::5                   2788611      8.07%     92.93% # Number of insts issued each cycle (Count)
system.cpu.numIssuedDist::6                   1784690      5.16%     98.09% # Number of insts issued each cycle (Count)
system.cpu.numIssuedDist::7                    498436      1.44%     99.53% # Number of insts issued each cycle (Count)
system.cpu.numIssuedDist::8                    161230      0.47%    100.00% # Number of insts issued each cycle (Count)
system.cpu.numIssuedDist::overflows                 0      0.00%    100.00% # Number of insts issued each cycle (Count)
system.cpu.numIssuedDist::min_value                 0                       # Number of insts issued each cycle (Count)
system.cpu.numIssuedDist::max_value                 8                       # Number of insts issued each cycle (Count)
system.cpu.numIssuedDist::total              34559816                       # Number of insts issued each cycle (Count)
system.cpu.statFuBusy::No_OpClass                   0      0.00%      0.00% # attempts to use FU when none available (Count)
system.cpu.statFuBusy::IntAlu                   85490     10.16%     10.16% # attempts to use FU when none available (Count)
system.cpu.statFuBusy::IntMult                      0      0.00%     10.16% # attempts to use FU when none available (Count)
system.cpu.statFuBusy::IntDiv                       0      0.00%     10.16% # attempts to use FU when none available (Count)
system.cpu.statFuBusy::FloatAdd                     0      0.00%     10.16% # attempts to use FU when none available (Count)
system.cpu.statFuBusy::FloatCmp                     0      0.00%     10.16% # attempts to use FU when none available (Count)
system.cpu.statFuBusy::FloatCvt                     0      0.00%     10.16% # attempts to use FU when none available (Count)
system.cpu.statFuBusy::FloatMult                    0      0.00%     10.16% # attempts to use FU when none available (Count)
system.cpu.statFuBusy::FloatMultAcc                 0      0.00%     10.16% # attempts to use FU when none available (Count)
system.cpu.statFuBusy::FloatDiv                     0      0.00%     10.16% # attempts to use FU when none available (Count)
system.cpu.statFuBusy::FloatMisc                    0      0.00%     10.16% # attempts to use FU when none available (Count)
system.cpu.statFuBusy::FloatSqrt                    0      0.00%     10.16% # attempts to use FU when none available (Count)
system.cpu.statFuBusy::SimdAdd                      0      0.00%     10.16% # attempts to use FU when none available (Count)
system.cpu.statFuBusy::SimdAddAcc                   0      0.00%     10.16% # attempts to use FU when none available (Count)
system.cpu.statFuBusy::SimdAlu                   6893      0.82%     10.97% # attempts to use FU when none available (Count)
system.cpu.statFuBusy::SimdCmp                      0      0.00%     10.97% # attempts to use FU when none available (Count)
system.cpu.statFuBusy::SimdCvt                   9970      1.18%     12.16% # attempts to use FU when none available (Count)
system.cpu.statFuBusy::SimdMisc                    54      0.01%     12.17% # attempts to use FU when none available (Count)
system.cpu.statFuBusy::SimdMult                     0      0.00%     12.17% # attempts to use FU when none available (Count)
system.cpu.statFuBusy::SimdMultAcc                  0      0.00%     12.17% # attempts to use FU when none available (Count)
system.cpu.statFuBusy::SimdShift                    6      0.00%     12.17% # attempts to use FU when none available (Count)
system.cpu.statFuBusy::SimdShiftAcc                 0      0.00%     12.17% # attempts to use FU when none available (Count)
system.cpu.statFuBusy::SimdDiv                      0      0.00%     12.17% # attempts to use FU when none available (Count)
system.cpu.statFuBusy::SimdSqrt                     0      0.00%     12.17% # attempts to use FU when none available (Count)
system.cpu.statFuBusy::SimdFloatAdd                78      0.01%     12.18% # attempts to use FU when none available (Count)
system.cpu.statFuBusy::SimdFloatAlu                 0      0.00%     12.18% # attempts to use FU when none available (Count)
system.cpu.statFuBusy::SimdFloatCmp                 0      0.00%     12.18% # attempts to use FU when none available (Count)
system.cpu.statFuBusy::SimdFloatCvt                37      0.00%     12.18% # attempts to use FU when none available (Count)
system.cpu.statFuBusy::SimdFloatDiv                 0      0.00%     12.18% # attempts to use FU when none available (Count)
system.cpu.statFuBusy::SimdFloatMisc                0      0.00%     12.18% # attempts to use FU when none available (Count)
system.cpu.statFuBusy::SimdFloatMult               49      0.01%     12.19% # attempts to use FU when none available (Count)
system.cpu.statFuBusy::SimdFloatMultAcc             0      0.00%     12.19% # attempts to use FU when none available (Count)
system.cpu.statFuBusy::SimdFloatSqrt                0      0.00%     12.19% # attempts to use FU when none available (Count)
system.cpu.statFuBusy::SimdReduceAdd                0      0.00%     12.19% # attempts to use FU when none available (Count)
system.cpu.statFuBusy::SimdReduceAlu                0      0.00%     12.19% # attempts to use FU when none available (Count)
system.cpu.statFuBusy::SimdReduceCmp                0      0.00%     12.19% # attempts to use FU when none available (Count)
system.cpu.statFuBusy::SimdFloatReduceAdd            0      0.00%     12.19% # attempts to use FU when none available (Count)
system.cpu.statFuBusy::SimdFloatReduceCmp            0      0.00%     12.19% # attempts to use FU when none available (Count)
system.cpu.statFuBusy::SimdAes                      0      0.00%     12.19% # attempts to use FU when none available (Count)
system.cpu.statFuBusy::SimdAesMix                   0      0.00%     12.19% # attempts to use FU when none available (Count)
system.cpu.statFuBusy::SimdSha1Hash                 0      0.00%     12.19% # attempts to use FU when none available (Count)
system.cpu.statFuBusy::SimdSha1Hash2                0      0.00%     12.19% # attempts to use FU when none available (Count)
system.cpu.statFuBusy::SimdSha256Hash               0      0.00%     12.19% # attempts to use FU when none available (Count)
system.cpu.statFuBusy::SimdSha256Hash2              0      0.00%     12.19% # attempts to use FU when none available (Count)
system.cpu.statFuBusy::SimdShaSigma2                0      0.00%     12.19% # attempts to use FU when none available (Count)
system.cpu.statFuBusy::SimdShaSigma3                0      0.00%     12.19% # attempts to use FU when none available (Count)
system.cpu.statFuBusy::SimdPredAlu                  0      0.00%     12.19% # attempts to use FU when none available (Count)
system.cpu.statFuBusy::MemRead                 681943     81.01%     93.20% # attempts to use FU when none available (Count)
system.cpu.statFuBusy::MemWrite                 56032      6.66%     99.86% # attempts to use FU when none available (Count)
system.cpu.statFuBusy::FloatMemRead              1170      0.14%     99.99% # attempts to use FU when none available (Count)
system.cpu.statFuBusy::FloatMemWrite               45      0.01%    100.00% # attempts to use FU when none available (Count)
system.cpu.statFuBusy::IprAccess                    0      0.00%    100.00% # attempts to use FU when none available (Count)
system.cpu.statFuBusy::InstPrefetch                 0      0.00%    100.00% # attempts to use FU when none available (Count)
system.cpu.statIssuedInstType_0::No_OpClass        23475      0.03%      0.03% # Number of instructions issued per FU type, per thread (Count)
system.cpu.statIssuedInstType_0::IntAlu      44550669     55.74%     55.77% # Number of instructions issued per FU type, per thread (Count)
system.cpu.statIssuedInstType_0::IntMult        71280      0.09%     55.85% # Number of instructions issued per FU type, per thread (Count)
system.cpu.statIssuedInstType_0::IntDiv        819750      1.03%     56.88% # Number of instructions issued per FU type, per thread (Count)
system.cpu.statIssuedInstType_0::FloatAdd      1413381      1.77%     58.65% # Number of instructions issued per FU type, per thread (Count)
system.cpu.statIssuedInstType_0::FloatCmp            0      0.00%     58.65% # Number of instructions issued per FU type, per thread (Count)
system.cpu.statIssuedInstType_0::FloatCvt            0      0.00%     58.65% # Number of instructions issued per FU type, per thread (Count)
system.cpu.statIssuedInstType_0::FloatMult            0      0.00%     58.65% # Number of instructions issued per FU type, per thread (Count)
system.cpu.statIssuedInstType_0::FloatMultAcc            0      0.00%     58.65% # Number of instructions issued per FU type, per thread (Count)
system.cpu.statIssuedInstType_0::FloatDiv            0      0.00%     58.65% # Number of instructions issued per FU type, per thread (Count)
system.cpu.statIssuedInstType_0::FloatMisc            0      0.00%     58.65% # Number of instructions issued per FU type, per thread (Count)
system.cpu.statIssuedInstType_0::FloatSqrt            0      0.00%     58.65% # Number of instructions issued per FU type, per thread (Count)
system.cpu.statIssuedInstType_0::SimdAdd          528      0.00%     58.65% # Number of instructions issued per FU type, per thread (Count)
system.cpu.statIssuedInstType_0::SimdAddAcc            0      0.00%     58.65% # Number of instructions issued per FU type, per thread (Count)
system.cpu.statIssuedInstType_0::SimdAlu       102452      0.13%     58.78% # Number of instructions issued per FU type, per thread (Count)
system.cpu.statIssuedInstType_0::SimdCmp          250      0.00%     58.78% # Number of instructions issued per FU type, per thread (Count)
system.cpu.statIssuedInstType_0::SimdCvt       113052      0.14%     58.92% # Number of instructions issued per FU type, per thread (Count)
system.cpu.statIssuedInstType_0::SimdMisc       225552      0.28%     59.20% # Number of instructions issued per FU type, per thread (Count)
system.cpu.statIssuedInstType_0::SimdMult            0      0.00%     59.20% # Number of instructions issued per FU type, per thread (Count)
system.cpu.statIssuedInstType_0::SimdMultAcc            0      0.00%     59.20% # Number of instructions issued per FU type, per thread (Count)
system.cpu.statIssuedInstType_0::SimdShift          237      0.00%     59.20% # Number of instructions issued per FU type, per thread (Count)
system.cpu.statIssuedInstType_0::SimdShiftAcc            0      0.00%     59.20% # Number of instructions issued per FU type, per thread (Count)
system.cpu.statIssuedInstType_0::SimdDiv            0      0.00%     59.20% # Number of instructions issued per FU type, per thread (Count)
system.cpu.statIssuedInstType_0::SimdSqrt            0      0.00%     59.20% # Number of instructions issued per FU type, per thread (Count)
system.cpu.statIssuedInstType_0::SimdFloatAdd       189278      0.24%     59.44% # Number of instructions issued per FU type, per thread (Count)
system.cpu.statIssuedInstType_0::SimdFloatAlu            0      0.00%     59.44% # Number of instructions issued per FU type, per thread (Count)
system.cpu.statIssuedInstType_0::SimdFloatCmp            0      0.00%     59.44% # Number of instructions issued per FU type, per thread (Count)
system.cpu.statIssuedInstType_0::SimdFloatCvt       305945      0.38%     59.82% # Number of instructions issued per FU type, per thread (Count)
system.cpu.statIssuedInstType_0::SimdFloatDiv        39994      0.05%     59.87% # Number of instructions issued per FU type, per thread (Count)
system.cpu.statIssuedInstType_0::SimdFloatMisc            0      0.00%     59.87% # Number of instructions issued per FU type, per thread (Count)
system.cpu.statIssuedInstType_0::SimdFloatMult        38110      0.05%     59.92% # Number of instructions issued per FU type, per thread (Count)
system.cpu.statIssuedInstType_0::SimdFloatMultAcc            0      0.00%     59.92% # Number of instructions issued per FU type, per thread (Count)
system.cpu.statIssuedInstType_0::SimdFloatSqrt            0      0.00%     59.92% # Number of instructions issued per FU type, per thread (Count)
system.cpu.statIssuedInstType_0::SimdReduceAdd            0      0.00%     59.92% # Number of instructions issued per FU type, per thread (Count)
system.cpu.statIssuedInstType_0::SimdReduceAlu            0      0.00%     59.92% # Number of instructions issued per FU type, per thread (Count)
system.cpu.statIssuedInstType_0::SimdReduceCmp            0      0.00%     59.92% # Number of instructions issued per FU type, per thread (Count)
system.cpu.statIssuedInstType_0::SimdFloatReduceAdd            0      0.00%     59.92% # Number of instructions issued per FU type, per thread (Count)
system.cpu.statIssuedInstType_0::SimdFloatReduceCmp            0      0.00%     59.92% # Number of instructions issued per FU type, per thread (Count)
system.cpu.statIssuedInstType_0::SimdAes            0      0.00%     59.92% # Number of instructions issued per FU type, per thread (Count)
system.cpu.statIssuedInstType_0::SimdAesMix            0      0.00%     59.92% # Number of instructions issued per FU type, per thread (Count)
system.cpu.statIssuedInstType_0::SimdSha1Hash            0      0.00%     59.92% # Number of instructions issued per FU type, per thread (Count)
system.cpu.statIssuedInstType_0::SimdSha1Hash2            0      0.00%     59.92% # Number of instructions issued per FU type, per thread (Count)
system.cpu.statIssuedInstType_0::SimdSha256Hash            0      0.00%     59.92% # Number of instructions issued per FU type, per thread (Count)
system.cpu.statIssuedInstType_0::SimdSha256Hash2            0      0.00%     59.92% # Number of instructions issued per FU type, per thread (Count)
system.cpu.statIssuedInstType_0::SimdShaSigma2            0      0.00%     59.92% # Number of instructions issued per FU type, per thread (Count)
system.cpu.statIssuedInstType_0::SimdShaSigma3            0      0.00%     59.92% # Number of instructions issued per FU type, per thread (Count)
system.cpu.statIssuedInstType_0::SimdPredAlu            0      0.00%     59.92% # Number of instructions issued per FU type, per thread (Count)
system.cpu.statIssuedInstType_0::MemRead     27121554     33.93%     93.85% # Number of instructions issued per FU type, per thread (Count)
system.cpu.statIssuedInstType_0::MemWrite      3897821      4.88%     98.73% # Number of instructions issued per FU type, per thread (Count)
system.cpu.statIssuedInstType_0::FloatMemRead       817902      1.02%     99.75% # Number of instructions issued per FU type, per thread (Count)
system.cpu.statIssuedInstType_0::FloatMemWrite       200800      0.25%    100.00% # Number of instructions issued per FU type, per thread (Count)
system.cpu.statIssuedInstType_0::IprAccess            0      0.00%    100.00% # Number of instructions issued per FU type, per thread (Count)
system.cpu.statIssuedInstType_0::InstPrefetch            0      0.00%    100.00% # Number of instructions issued per FU type, per thread (Count)
system.cpu.statIssuedInstType_0::total       79932030                       # Number of instructions issued per FU type, per thread (Count)
system.cpu.issueRate                         2.308501                       # Inst issue rate ((Count/Cycle))
system.cpu.fuBusy                              841767                       # FU busy when requested (Count)
system.cpu.fuBusyRate                        0.010531                       # FU busy rate (busy events/executed inst) ((Count/Count))
system.cpu.intInstQueueReads                188140673                       # Number of integer instruction queue reads (Count)
system.cpu.intInstQueueWrites               115442993                       # Number of integer instruction queue writes (Count)
system.cpu.intInstQueueWakeupAccesses        75054329                       # Number of integer instruction queue wakeup accesses (Count)
system.cpu.fpInstQueueReads                   7175152                       # Number of floating instruction queue reads (Count)
system.cpu.fpInstQueueWrites                  5184627                       # Number of floating instruction queue writes (Count)
system.cpu.fpInstQueueWakeupAccesses          3536655                       # Number of floating instruction queue wakeup accesses (Count)
system.cpu.vecInstQueueReads                        0                       # Number of vector instruction queue reads (Count)
system.cpu.vecInstQueueWrites                       0                       # Number of vector instruction queue writes (Count)
system.cpu.vecInstQueueWakeupAccesses               0                       # Number of vector instruction queue wakeup accesses (Count)
system.cpu.intAluAccesses                    77153687                       # Number of integer alu accesses (Count)
system.cpu.fpAluAccesses                      3596635                       # Number of floating point alu accesses (Count)
system.cpu.vecAluAccesses                           0                       # Number of vector alu accesses (Count)
system.cpu.numInsts                          79318909                       # Number of executed instructions (Count)
system.cpu.numLoadInsts                      27525633                       # Number of load instructions executed (Count)
system.cpu.numSquashedInsts                    613114                       # Number of squashed instructions skipped in execute (Count)
system.cpu.numSwp                                   0                       # Number of swp insts executed (Count)
system.cpu.numNop                                   0                       # Number of nop insts executed (Count)
system.cpu.numRefs                           31579403                       # Number of memory reference insts executed (Count)
system.cpu.numBranches                        3190943                       # Number of branches executed (Count)
system.cpu.numStoreInsts                      4053770                       # Number of stores executed (Count)
system.cpu.numRate                           2.290794                       # Inst execution rate ((Count/Cycle))
system.cpu.timesIdled                            1055                       # Number of times that the entire CPU went into an idle state and unscheduled itself (Count)
system.cpu.idleCycles                           65262                       # Total number of cycles that the CPU has spent unscheduled due to idling (Cycle)
system.cpu.committedInsts                    50000003                       # Number of Instructions Simulated (Count)
system.cpu.committedOps                      65070782                       # Number of Ops (including micro ops) Simulated (Count)
system.cpu.cpi                               0.692502                       # CPI: Cycles Per Instruction ((Cycle/Count))
system.cpu.totalCpi                          0.692502                       # CPI: Total CPI of All Threads ((Cycle/Count))
system.cpu.ipc                               1.444040                       # IPC: Instructions Per Cycle ((Count/Cycle))
system.cpu.totalIpc                          1.444040                       # IPC: Total IPC of All Threads ((Count/Cycle))
system.cpu.intRegfileReads                  102802232                       # Number of integer regfile reads (Count)
system.cpu.intRegfileWrites                  67231070                       # Number of integer regfile writes (Count)
system.cpu.fpRegfileReads                     2768953                       # Number of floating regfile reads (Count)
system.cpu.fpRegfileWrites                    3096544                       # Number of floating regfile writes (Count)
system.cpu.ccRegfileReads                    20907482                       # number of cc regfile reads (Count)
system.cpu.ccRegfileWrites                   29595157                       # number of cc regfile writes (Count)
system.cpu.miscRegfileReads                  38465683                       # number of misc regfile reads (Count)
system.cpu.MemDepUnit__0.insertedLoads       30526852                       # Number of loads inserted to the mem dependence unit. (Count)
system.cpu.MemDepUnit__0.insertedStores       5027596                       # Number of stores inserted to the mem dependence unit. (Count)
system.cpu.MemDepUnit__0.conflictingLoads      8672450                       # Number of conflicting loads. (Count)
system.cpu.MemDepUnit__0.conflictingStores      1756944                       # Number of conflicting stores. (Count)
system.cpu.MemDepUnit__1.insertedLoads              0                       # Number of loads inserted to the mem dependence unit. (Count)
system.cpu.MemDepUnit__1.insertedStores             0                       # Number of stores inserted to the mem dependence unit. (Count)
system.cpu.MemDepUnit__1.conflictingLoads            0                       # Number of conflicting loads. (Count)
system.cpu.MemDepUnit__1.conflictingStores            0                       # Number of conflicting stores. (Count)
system.cpu.MemDepUnit__2.insertedLoads              0                       # Number of loads inserted to the mem dependence unit. (Count)
system.cpu.MemDepUnit__2.insertedStores             0                       # Number of stores inserted to the mem dependence unit. (Count)
system.cpu.MemDepUnit__2.conflictingLoads            0                       # Number of conflicting loads. (Count)
system.cpu.MemDepUnit__2.conflictingStores            0                       # Number of conflicting stores. (Count)
system.cpu.MemDepUnit__3.insertedLoads              0                       # Number of loads inserted to the mem dependence unit. (Count)
system.cpu.MemDepUnit__3.insertedStores             0                       # Number of stores inserted to the mem dependence unit. (Count)
system.cpu.MemDepUnit__3.conflictingLoads            0                       # Number of conflicting loads. (Count)
system.cpu.MemDepUnit__3.conflictingStores            0                       # Number of conflicting stores. (Count)
system.cpu.branchPred.lookups                 5799703                       # Number of BP lookups (Count)
system.cpu.branchPred.condPredicted           5467858                       # Number of conditional branches predicted (Count)
system.cpu.branchPred.condIncorrect            455304                       # Number of conditional branches incorrect (Count)
system.cpu.branchPred.BTBLookups              4805913                       # Number of BTB lookups (Count)
system.cpu.branchPred.BTBHits                 4791178                       # Number of BTB hits (Count)
system.cpu.branchPred.BTBHitRatio            0.996934                       # BTB Hit Ratio (Ratio)
system.cpu.branchPred.RASUsed                  113180                       # Number of times the RAS was used to get a target. (Count)
system.cpu.branchPred.RASIncorrect                  6                       # Number of incorrect RAS predictions. (Count)
system.cpu.branchPred.indirectLookups           18663                       # Number of indirect predictor lookups. (Count)
system.cpu.branchPred.indirectHits              17573                       # Number of indirect target hits. (Count)
system.cpu.branchPred.indirectMisses             1090                       # Number of indirect misses. (Count)
system.cpu.branchPred.indirectMispredicted          254                       # Number of mispredicted indirect branches. (Count)
system.cpu.commit.commitSquashedInsts        27774165                       # The number of squashed insts skipped by commit (Count)
system.cpu.commit.commitNonSpecStalls             330                       # The number of times commit has been forced to stall to communicate backwards (Count)
system.cpu.commit.branchMispredicts            449336                       # The number of times a branch was mispredicted (Count)
system.cpu.commit.numCommittedDist::samples     30792202                       # Number of insts commited each cycle (Count)
system.cpu.commit.numCommittedDist::mean     2.113223                       # Number of insts commited each cycle (Count)
system.cpu.commit.numCommittedDist::stdev     2.675544                       # Number of insts commited each cycle (Count)
system.cpu.commit.numCommittedDist::underflows            0      0.00%      0.00% # Number of insts commited each cycle (Count)
system.cpu.commit.numCommittedDist::0        11269802     36.60%     36.60% # Number of insts commited each cycle (Count)
system.cpu.commit.numCommittedDist::1         7798867     25.33%     61.93% # Number of insts commited each cycle (Count)
system.cpu.commit.numCommittedDist::2         3048843      9.90%     71.83% # Number of insts commited each cycle (Count)
system.cpu.commit.numCommittedDist::3         2004323      6.51%     78.34% # Number of insts commited each cycle (Count)
system.cpu.commit.numCommittedDist::4          850539      2.76%     81.10% # Number of insts commited each cycle (Count)
system.cpu.commit.numCommittedDist::5          694162      2.25%     83.35% # Number of insts commited each cycle (Count)
system.cpu.commit.numCommittedDist::6          826600      2.68%     86.04% # Number of insts commited each cycle (Count)
system.cpu.commit.numCommittedDist::7         1063834      3.45%     89.49% # Number of insts commited each cycle (Count)
system.cpu.commit.numCommittedDist::8         3235232     10.51%    100.00% # Number of insts commited each cycle (Count)
system.cpu.commit.numCommittedDist::overflows            0      0.00%    100.00% # Number of insts commited each cycle (Count)
system.cpu.commit.numCommittedDist::min_value            0                       # Number of insts commited each cycle (Count)
system.cpu.commit.numCommittedDist::max_value            8                       # Number of insts commited each cycle (Count)
system.cpu.commit.numCommittedDist::total     30792202                       # Number of insts commited each cycle (Count)
system.cpu.commit.instsCommitted             50000003                       # Number of instructions committed (Count)
system.cpu.commit.opsCommitted               65070782                       # Number of ops (including micro ops) committed (Count)
system.cpu.commit.memRefs                    25501597                       # Number of memory references committed (Count)
system.cpu.commit.loads                      21862333                       # Number of loads committed (Count)
system.cpu.commit.amos                              0                       # Number of atomic instructions committed (Count)
system.cpu.commit.membars                         220                       # Number of memory barriers committed (Count)
system.cpu.commit.branches                    2860070                       # Number of branches committed (Count)
system.cpu.commit.vectorInstructions                0                       # Number of committed Vector instructions. (Count)
system.cpu.commit.floating                    3002095                       # Number of committed floating point instructions. (Count)
system.cpu.commit.integer                    62936732                       # Number of committed integer instructions. (Count)
system.cpu.commit.functionCalls                 82469                       # Number of function calls committed. (Count)
system.cpu.commit.committedInstType_0::No_OpClass        16301      0.03%      0.03% # Class of committed instruction (Count)
system.cpu.commit.committedInstType_0::IntAlu     36916455     56.73%     56.76% # Class of committed instruction (Count)
system.cpu.commit.committedInstType_0::IntMult        70750      0.11%     56.87% # Class of committed instruction (Count)
system.cpu.commit.committedInstType_0::IntDiv       629696      0.97%     57.83% # Class of committed instruction (Count)
system.cpu.commit.committedInstType_0::FloatAdd      1010332      1.55%     59.39% # Class of committed instruction (Count)
system.cpu.commit.committedInstType_0::FloatCmp            0      0.00%     59.39% # Class of committed instruction (Count)
system.cpu.commit.committedInstType_0::FloatCvt            0      0.00%     59.39% # Class of committed instruction (Count)
system.cpu.commit.committedInstType_0::FloatMult            0      0.00%     59.39% # Class of committed instruction (Count)
system.cpu.commit.committedInstType_0::FloatMultAcc            0      0.00%     59.39% # Class of committed instruction (Count)
system.cpu.commit.committedInstType_0::FloatDiv            0      0.00%     59.39% # Class of committed instruction (Count)
system.cpu.commit.committedInstType_0::FloatMisc            0      0.00%     59.39% # Class of committed instruction (Count)
system.cpu.commit.committedInstType_0::FloatSqrt            0      0.00%     59.39% # Class of committed instruction (Count)
system.cpu.commit.committedInstType_0::SimdAdd          450      0.00%     59.39% # Class of committed instruction (Count)
system.cpu.commit.committedInstType_0::SimdAddAcc            0      0.00%     59.39% # Class of committed instruction (Count)
system.cpu.commit.committedInstType_0::SimdAlu        88594      0.14%     59.52% # Class of committed instruction (Count)
system.cpu.commit.committedInstType_0::SimdCmp          204      0.00%     59.52% # Class of committed instruction (Count)
system.cpu.commit.committedInstType_0::SimdCvt        91788      0.14%     59.67% # Class of committed instruction (Count)
system.cpu.commit.committedInstType_0::SimdMisc       206377      0.32%     59.98% # Class of committed instruction (Count)
system.cpu.commit.committedInstType_0::SimdMult            0      0.00%     59.98% # Class of committed instruction (Count)
system.cpu.commit.committedInstType_0::SimdMultAcc            0      0.00%     59.98% # Class of committed instruction (Count)
system.cpu.commit.committedInstType_0::SimdShift          110      0.00%     59.98% # Class of committed instruction (Count)
system.cpu.commit.committedInstType_0::SimdShiftAcc            0      0.00%     59.98% # Class of committed instruction (Count)
system.cpu.commit.committedInstType_0::SimdDiv            0      0.00%     59.98% # Class of committed instruction (Count)
system.cpu.commit.committedInstType_0::SimdSqrt            0      0.00%     59.98% # Class of committed instruction (Count)
system.cpu.commit.committedInstType_0::SimdFloatAdd       185070      0.28%     60.27% # Class of committed instruction (Count)
system.cpu.commit.committedInstType_0::SimdFloatAlu            0      0.00%     60.27% # Class of committed instruction (Count)
system.cpu.commit.committedInstType_0::SimdFloatCmp            0      0.00%     60.27% # Class of committed instruction (Count)
system.cpu.commit.committedInstType_0::SimdFloatCvt       283363      0.44%     60.70% # Class of committed instruction (Count)
system.cpu.commit.committedInstType_0::SimdFloatDiv        32916      0.05%     60.75% # Class of committed instruction (Count)
system.cpu.commit.committedInstType_0::SimdFloatMisc            0      0.00%     60.75% # Class of committed instruction (Count)
system.cpu.commit.committedInstType_0::SimdFloatMult        36779      0.06%     60.81% # Class of committed instruction (Count)
system.cpu.commit.committedInstType_0::SimdFloatMultAcc            0      0.00%     60.81% # Class of committed instruction (Count)
system.cpu.commit.committedInstType_0::SimdFloatSqrt            0      0.00%     60.81% # Class of committed instruction (Count)
system.cpu.commit.committedInstType_0::SimdReduceAdd            0      0.00%     60.81% # Class of committed instruction (Count)
system.cpu.commit.committedInstType_0::SimdReduceAlu            0      0.00%     60.81% # Class of committed instruction (Count)
system.cpu.commit.committedInstType_0::SimdReduceCmp            0      0.00%     60.81% # Class of committed instruction (Count)
system.cpu.commit.committedInstType_0::SimdFloatReduceAdd            0      0.00%     60.81% # Class of committed instruction (Count)
system.cpu.commit.committedInstType_0::SimdFloatReduceCmp            0      0.00%     60.81% # Class of committed instruction (Count)
system.cpu.commit.committedInstType_0::SimdAes            0      0.00%     60.81% # Class of committed instruction (Count)
system.cpu.commit.committedInstType_0::SimdAesMix            0      0.00%     60.81% # Class of committed instruction (Count)
system.cpu.commit.committedInstType_0::SimdSha1Hash            0      0.00%     60.81% # Class of committed instruction (Count)
system.cpu.commit.committedInstType_0::SimdSha1Hash2            0      0.00%     60.81% # Class of committed instruction (Count)
system.cpu.commit.committedInstType_0::SimdSha256Hash            0      0.00%     60.81% # Class of committed instruction (Count)
system.cpu.commit.committedInstType_0::SimdSha256Hash2            0      0.00%     60.81% # Class of committed instruction (Count)
system.cpu.commit.committedInstType_0::SimdShaSigma2            0      0.00%     60.81% # Class of committed instruction (Count)
system.cpu.commit.committedInstType_0::SimdShaSigma3            0      0.00%     60.81% # Class of committed instruction (Count)
system.cpu.commit.committedInstType_0::SimdPredAlu            0      0.00%     60.81% # Class of committed instruction (Count)
system.cpu.commit.committedInstType_0::MemRead     21103150     32.43%     93.24% # Class of committed instruction (Count)
system.cpu.commit.committedInstType_0::MemWrite      3445328      5.29%     98.54% # Class of committed instruction (Count)
system.cpu.commit.committedInstType_0::FloatMemRead       759183      1.17%     99.70% # Class of committed instruction (Count)
system.cpu.commit.committedInstType_0::FloatMemWrite       193936      0.30%    100.00% # Class of committed instruction (Count)
system.cpu.commit.committedInstType_0::IprAccess            0      0.00%    100.00% # Class of committed instruction (Count)
system.cpu.commit.committedInstType_0::InstPrefetch            0      0.00%    100.00% # Class of committed instruction (Count)
system.cpu.commit.committedInstType_0::total     65070782                       # Class of committed instruction (Count)
system.cpu.commit.commitEligibleSamples       3235232                       # number cycles where commit BW limit reached (Cycle)
system.cpu.dcache.demandHits::cpu.data       26041962                       # number of demand (read+write) hits (Count)
system.cpu.dcache.demandHits::total          26041962                       # number of demand (read+write) hits (Count)
system.cpu.dcache.overallHits::cpu.data      26041986                       # number of overall hits (Count)
system.cpu.dcache.overallHits::total         26041986                       # number of overall hits (Count)
system.cpu.dcache.demandMisses::cpu.data        97265                       # number of demand (read+write) misses (Count)
system.cpu.dcache.demandMisses::total           97265                       # number of demand (read+write) misses (Count)
system.cpu.dcache.overallMisses::cpu.data       100179                       # number of overall misses (Count)
system.cpu.dcache.overallMisses::total         100179                       # number of overall misses (Count)
system.cpu.dcache.demandMissLatency::cpu.data   2755324972                       # number of demand (read+write) miss ticks (Tick)
system.cpu.dcache.demandMissLatency::total   2755324972                       # number of demand (read+write) miss ticks (Tick)
system.cpu.dcache.overallMissLatency::cpu.data   2755324972                       # number of overall miss ticks (Tick)
system.cpu.dcache.overallMissLatency::total   2755324972                       # number of overall miss ticks (Tick)
system.cpu.dcache.demandAccesses::cpu.data     26139227                       # number of demand (read+write) accesses (Count)
system.cpu.dcache.demandAccesses::total      26139227                       # number of demand (read+write) accesses (Count)
system.cpu.dcache.overallAccesses::cpu.data     26142165                       # number of overall (read+write) accesses (Count)
system.cpu.dcache.overallAccesses::total     26142165                       # number of overall (read+write) accesses (Count)
system.cpu.dcache.demandMissRate::cpu.data     0.003721                       # miss rate for demand accesses (Ratio)
system.cpu.dcache.demandMissRate::total      0.003721                       # miss rate for demand accesses (Ratio)
system.cpu.dcache.overallMissRate::cpu.data     0.003832                       # miss rate for overall accesses (Ratio)
system.cpu.dcache.overallMissRate::total     0.003832                       # miss rate for overall accesses (Ratio)
system.cpu.dcache.demandAvgMissLatency::cpu.data 28328.021097                       # average overall miss latency in ticks ((Tick/Count))
system.cpu.dcache.demandAvgMissLatency::total 28328.021097                       # average overall miss latency in ticks ((Tick/Count))
system.cpu.dcache.overallAvgMissLatency::cpu.data 27504.017529                       # average overall miss latency ((Tick/Count))
system.cpu.dcache.overallAvgMissLatency::total 27504.017529                       # average overall miss latency ((Tick/Count))
system.cpu.dcache.blockedCycles::no_mshrs        14987                       # number of cycles access was blocked (Cycle)
system.cpu.dcache.blockedCycles::no_targets            0                       # number of cycles access was blocked (Cycle)
system.cpu.dcache.blockedCauses::no_mshrs         1538                       # number of times access was blocked (Count)
system.cpu.dcache.blockedCauses::no_targets            0                       # number of times access was blocked (Count)
system.cpu.dcache.avgBlocked::no_mshrs       9.744473                       # average number of cycles each access was blocked ((Cycle/Count))
system.cpu.dcache.avgBlocked::no_targets          nan                       # average number of cycles each access was blocked ((Cycle/Count))
system.cpu.dcache.writebacks::writebacks        59557                       # number of writebacks (Count)
system.cpu.dcache.writebacks::total             59557                       # number of writebacks (Count)
system.cpu.dcache.demandMshrHits::cpu.data        38490                       # number of demand (read+write) MSHR hits (Count)
system.cpu.dcache.demandMshrHits::total         38490                       # number of demand (read+write) MSHR hits (Count)
system.cpu.dcache.overallMshrHits::cpu.data        38490                       # number of overall MSHR hits (Count)
system.cpu.dcache.overallMshrHits::total        38490                       # number of overall MSHR hits (Count)
system.cpu.dcache.demandMshrMisses::cpu.data        58775                       # number of demand (read+write) MSHR misses (Count)
system.cpu.dcache.demandMshrMisses::total        58775                       # number of demand (read+write) MSHR misses (Count)
system.cpu.dcache.overallMshrMisses::cpu.data        61685                       # number of overall MSHR misses (Count)
system.cpu.dcache.overallMshrMisses::total        61685                       # number of overall MSHR misses (Count)
system.cpu.dcache.demandMshrMissLatency::cpu.data   1690378980                       # number of demand (read+write) MSHR miss ticks (Tick)
system.cpu.dcache.demandMshrMissLatency::total   1690378980                       # number of demand (read+write) MSHR miss ticks (Tick)
system.cpu.dcache.overallMshrMissLatency::cpu.data   1787567980                       # number of overall MSHR miss ticks (Tick)
system.cpu.dcache.overallMshrMissLatency::total   1787567980                       # number of overall MSHR miss ticks (Tick)
system.cpu.dcache.demandMshrMissRate::cpu.data     0.002249                       # mshr miss ratio for demand accesses (Ratio)
system.cpu.dcache.demandMshrMissRate::total     0.002249                       # mshr miss ratio for demand accesses (Ratio)
system.cpu.dcache.overallMshrMissRate::cpu.data     0.002360                       # mshr miss ratio for overall accesses (Ratio)
system.cpu.dcache.overallMshrMissRate::total     0.002360                       # mshr miss ratio for overall accesses (Ratio)
system.cpu.dcache.demandAvgMshrMissLatency::cpu.data 28760.169800                       # average overall mshr miss latency ((Tick/Count))
system.cpu.dcache.demandAvgMshrMissLatency::total 28760.169800                       # average overall mshr miss latency ((Tick/Count))
system.cpu.dcache.overallAvgMshrMissLatency::cpu.data 28978.973494                       # average overall mshr miss latency ((Tick/Count))
system.cpu.dcache.overallAvgMshrMissLatency::total 28978.973494                       # average overall mshr miss latency ((Tick/Count))
system.cpu.dcache.replacements                  61173                       # number of replacements (Count)
system.cpu.dcache.LockedRMWReadReq.hits::cpu.data          110                       # number of LockedRMWReadReq hits (Count)
system.cpu.dcache.LockedRMWReadReq.hits::total          110                       # number of LockedRMWReadReq hits (Count)
system.cpu.dcache.LockedRMWReadReq.accesses::cpu.data          110                       # number of LockedRMWReadReq accesses(hits+misses) (Count)
system.cpu.dcache.LockedRMWReadReq.accesses::total          110                       # number of LockedRMWReadReq accesses(hits+misses) (Count)
system.cpu.dcache.LockedRMWReadReq.mshrMissLatency::cpu.data       660000                       # number of LockedRMWReadReq MSHR miss ticks (Tick)
system.cpu.dcache.LockedRMWReadReq.mshrMissLatency::total       660000                       # number of LockedRMWReadReq MSHR miss ticks (Tick)
system.cpu.dcache.LockedRMWReadReq.avgMshrMissLatency::cpu.data          inf                       # average LockedRMWReadReq mshr miss latency ((Tick/Count))
system.cpu.dcache.LockedRMWReadReq.avgMshrMissLatency::total          inf                       # average LockedRMWReadReq mshr miss latency ((Tick/Count))
system.cpu.dcache.LockedRMWWriteReq.hits::cpu.data          110                       # number of LockedRMWWriteReq hits (Count)
system.cpu.dcache.LockedRMWWriteReq.hits::total          110                       # number of LockedRMWWriteReq hits (Count)
system.cpu.dcache.LockedRMWWriteReq.accesses::cpu.data          110                       # number of LockedRMWWriteReq accesses(hits+misses) (Count)
system.cpu.dcache.LockedRMWWriteReq.accesses::total          110                       # number of LockedRMWWriteReq accesses(hits+misses) (Count)
system.cpu.dcache.ReadReq.hits::cpu.data     22445850                       # number of ReadReq hits (Count)
system.cpu.dcache.ReadReq.hits::total        22445850                       # number of ReadReq hits (Count)
system.cpu.dcache.ReadReq.misses::cpu.data        54160                       # number of ReadReq misses (Count)
system.cpu.dcache.ReadReq.misses::total         54160                       # number of ReadReq misses (Count)
system.cpu.dcache.ReadReq.missLatency::cpu.data   1414418000                       # number of ReadReq miss ticks (Tick)
system.cpu.dcache.ReadReq.missLatency::total   1414418000                       # number of ReadReq miss ticks (Tick)
system.cpu.dcache.ReadReq.accesses::cpu.data     22500010                       # number of ReadReq accesses(hits+misses) (Count)
system.cpu.dcache.ReadReq.accesses::total     22500010                       # number of ReadReq accesses(hits+misses) (Count)
system.cpu.dcache.ReadReq.missRate::cpu.data     0.002407                       # miss rate for ReadReq accesses (Ratio)
system.cpu.dcache.ReadReq.missRate::total     0.002407                       # miss rate for ReadReq accesses (Ratio)
system.cpu.dcache.ReadReq.avgMissLatency::cpu.data 26115.546529                       # average ReadReq miss latency ((Tick/Count))
system.cpu.dcache.ReadReq.avgMissLatency::total 26115.546529                       # average ReadReq miss latency ((Tick/Count))
system.cpu.dcache.ReadReq.mshrHits::cpu.data        38428                       # number of ReadReq MSHR hits (Count)
system.cpu.dcache.ReadReq.mshrHits::total        38428                       # number of ReadReq MSHR hits (Count)
system.cpu.dcache.ReadReq.mshrMisses::cpu.data        15732                       # number of ReadReq MSHR misses (Count)
system.cpu.dcache.ReadReq.mshrMisses::total        15732                       # number of ReadReq MSHR misses (Count)
system.cpu.dcache.ReadReq.mshrMissLatency::cpu.data    436998000                       # number of ReadReq MSHR miss ticks (Tick)
system.cpu.dcache.ReadReq.mshrMissLatency::total    436998000                       # number of ReadReq MSHR miss ticks (Tick)
system.cpu.dcache.ReadReq.mshrMissRate::cpu.data     0.000699                       # mshr miss rate for ReadReq accesses (Ratio)
system.cpu.dcache.ReadReq.mshrMissRate::total     0.000699                       # mshr miss rate for ReadReq accesses (Ratio)
system.cpu.dcache.ReadReq.avgMshrMissLatency::cpu.data 27777.650648                       # average ReadReq mshr miss latency ((Tick/Count))
system.cpu.dcache.ReadReq.avgMshrMissLatency::total 27777.650648                       # average ReadReq mshr miss latency ((Tick/Count))
system.cpu.dcache.SoftPFReq.hits::cpu.data           24                       # number of SoftPFReq hits (Count)
system.cpu.dcache.SoftPFReq.hits::total            24                       # number of SoftPFReq hits (Count)
system.cpu.dcache.SoftPFReq.misses::cpu.data         2914                       # number of SoftPFReq misses (Count)
system.cpu.dcache.SoftPFReq.misses::total         2914                       # number of SoftPFReq misses (Count)
system.cpu.dcache.SoftPFReq.accesses::cpu.data         2938                       # number of SoftPFReq accesses(hits+misses) (Count)
system.cpu.dcache.SoftPFReq.accesses::total         2938                       # number of SoftPFReq accesses(hits+misses) (Count)
system.cpu.dcache.SoftPFReq.missRate::cpu.data     0.991831                       # miss rate for SoftPFReq accesses (Ratio)
system.cpu.dcache.SoftPFReq.missRate::total     0.991831                       # miss rate for SoftPFReq accesses (Ratio)
system.cpu.dcache.SoftPFReq.mshrMisses::cpu.data         2910                       # number of SoftPFReq MSHR misses (Count)
system.cpu.dcache.SoftPFReq.mshrMisses::total         2910                       # number of SoftPFReq MSHR misses (Count)
system.cpu.dcache.SoftPFReq.mshrMissLatency::cpu.data     97189000                       # number of SoftPFReq MSHR miss ticks (Tick)
system.cpu.dcache.SoftPFReq.mshrMissLatency::total     97189000                       # number of SoftPFReq MSHR miss ticks (Tick)
system.cpu.dcache.SoftPFReq.mshrMissRate::cpu.data     0.990470                       # mshr miss rate for SoftPFReq accesses (Ratio)
system.cpu.dcache.SoftPFReq.mshrMissRate::total     0.990470                       # mshr miss rate for SoftPFReq accesses (Ratio)
system.cpu.dcache.SoftPFReq.avgMshrMissLatency::cpu.data 33398.281787                       # average SoftPFReq mshr miss latency ((Tick/Count))
system.cpu.dcache.SoftPFReq.avgMshrMissLatency::total 33398.281787                       # average SoftPFReq mshr miss latency ((Tick/Count))
system.cpu.dcache.WriteReq.hits::cpu.data      3596112                       # number of WriteReq hits (Count)
system.cpu.dcache.WriteReq.hits::total        3596112                       # number of WriteReq hits (Count)
system.cpu.dcache.WriteReq.misses::cpu.data        43105                       # number of WriteReq misses (Count)
system.cpu.dcache.WriteReq.misses::total        43105                       # number of WriteReq misses (Count)
system.cpu.dcache.WriteReq.missLatency::cpu.data   1340906972                       # number of WriteReq miss ticks (Tick)
system.cpu.dcache.WriteReq.missLatency::total   1340906972                       # number of WriteReq miss ticks (Tick)
system.cpu.dcache.WriteReq.accesses::cpu.data      3639217                       # number of WriteReq accesses(hits+misses) (Count)
system.cpu.dcache.WriteReq.accesses::total      3639217                       # number of WriteReq accesses(hits+misses) (Count)
system.cpu.dcache.WriteReq.missRate::cpu.data     0.011845                       # miss rate for WriteReq accesses (Ratio)
system.cpu.dcache.WriteReq.missRate::total     0.011845                       # miss rate for WriteReq accesses (Ratio)
system.cpu.dcache.WriteReq.avgMissLatency::cpu.data 31107.921865                       # average WriteReq miss latency ((Tick/Count))
system.cpu.dcache.WriteReq.avgMissLatency::total 31107.921865                       # average WriteReq miss latency ((Tick/Count))
system.cpu.dcache.WriteReq.mshrHits::cpu.data           62                       # number of WriteReq MSHR hits (Count)
system.cpu.dcache.WriteReq.mshrHits::total           62                       # number of WriteReq MSHR hits (Count)
system.cpu.dcache.WriteReq.mshrMisses::cpu.data        43043                       # number of WriteReq MSHR misses (Count)
system.cpu.dcache.WriteReq.mshrMisses::total        43043                       # number of WriteReq MSHR misses (Count)
system.cpu.dcache.WriteReq.mshrMissLatency::cpu.data   1253380980                       # number of WriteReq MSHR miss ticks (Tick)
system.cpu.dcache.WriteReq.mshrMissLatency::total   1253380980                       # number of WriteReq MSHR miss ticks (Tick)
system.cpu.dcache.WriteReq.mshrMissRate::cpu.data     0.011828                       # mshr miss rate for WriteReq accesses (Ratio)
system.cpu.dcache.WriteReq.mshrMissRate::total     0.011828                       # mshr miss rate for WriteReq accesses (Ratio)
system.cpu.dcache.WriteReq.avgMshrMissLatency::cpu.data 29119.275608                       # average WriteReq mshr miss latency ((Tick/Count))
system.cpu.dcache.WriteReq.avgMshrMissLatency::total 29119.275608                       # average WriteReq mshr miss latency ((Tick/Count))
system.cpu.dcache.power_state.pwrStateResidencyTicks::UNDEFINED  34625077000                       # Cumulative time (in ticks) in various power states (Tick)
system.cpu.dcache.tags.tagsInUse           510.394368                       # Average ticks per tags in use ((Tick/Count))
system.cpu.dcache.tags.totalRefs             26103891                       # Total number of references to valid blocks. (Count)
system.cpu.dcache.tags.sampledRefs              61685                       # Sample count of references to valid blocks. (Count)
system.cpu.dcache.tags.avgRefs             423.180530                       # Average number of references to valid blocks. ((Count/Count))
system.cpu.dcache.tags.warmupTick              222000                       # The tick when the warmup percentage was hit. (Tick)
system.cpu.dcache.tags.occupancies::cpu.data   510.394368                       # Average occupied blocks per tick, per requestor ((Count/Tick))
system.cpu.dcache.tags.avgOccs::cpu.data     0.996864                       # Average percentage of cache occupancy ((Ratio/Tick))
system.cpu.dcache.tags.avgOccs::total        0.996864                       # Average percentage of cache occupancy ((Ratio/Tick))
system.cpu.dcache.tags.occupanciesTaskId::1024          512                       # Occupied blocks per task id (Count)
system.cpu.dcache.tags.ageTaskId_1024::0           17                       # Occupied blocks per task id, per block age (Count)
system.cpu.dcache.tags.ageTaskId_1024::1          100                       # Occupied blocks per task id, per block age (Count)
system.cpu.dcache.tags.ageTaskId_1024::2          316                       # Occupied blocks per task id, per block age (Count)
system.cpu.dcache.tags.ageTaskId_1024::3           79                       # Occupied blocks per task id, per block age (Count)
system.cpu.dcache.tags.ratioOccsTaskId::1024            1                       # Ratio of occupied blocks and all blocks, per task id (Ratio)
system.cpu.dcache.tags.tagAccesses          104631225                       # Number of tag accesses (Count)
system.cpu.dcache.tags.dataAccesses         104631225                       # Number of data accesses (Count)
system.cpu.dcache.tags.power_state.pwrStateResidencyTicks::UNDEFINED  34625077000                       # Cumulative time (in ticks) in various power states (Tick)
system.cpu.decode.idleCycles                  4478248                       # Number of cycles decode is idle (Cycle)
system.cpu.decode.blockedCycles              15996946                       # Number of cycles decode is blocked (Cycle)
system.cpu.decode.runCycles                  10034533                       # Number of cycles decode is running (Cycle)
system.cpu.decode.unblockCycles               3595596                       # Number of cycles decode is unblocking (Cycle)
system.cpu.decode.squashCycles                 454493                       # Number of cycles decode is squashing (Cycle)
system.cpu.decode.branchResolved              3943233                       # Number of times decode resolved a branch (Count)
system.cpu.decode.branchMispred                  6083                       # Number of times decode detected a branch misprediction (Count)
system.cpu.decode.decodedInsts               97204838                       # Number of instructions handled by decode (Count)
system.cpu.decode.squashedInsts                 26778                       # Number of squashed instructions handled by decode (Count)
system.cpu.fetch.icacheStallCycles            7675034                       # Number of cycles fetch is stalled on an Icache miss (Cycle)
system.cpu.fetch.insts                       77451205                       # Number of instructions fetch has processed (Count)
system.cpu.fetch.branches                     5799703                       # Number of branches that fetch encountered (Count)
system.cpu.fetch.predictedBranches            4921931                       # Number of branches that fetch has predicted taken (Count)
system.cpu.fetch.cycles                      26424063                       # Number of cycles fetch has run and was not squashing or blocked (Cycle)
system.cpu.fetch.squashCycles                  920958                       # Number of cycles fetch has spent squashing (Cycle)
system.cpu.fetch.miscStallCycles                   32                       # Number of cycles fetch has spent waiting on interrupts, or bad addresses, or out of MSHRs (Cycle)
system.cpu.fetch.pendingTrapStallCycles           181                       # Number of stall cycles due to pending traps (Cycle)
system.cpu.fetch.icacheWaitRetryStallCycles           27                       # Number of stall cycles due to full MSHR (Cycle)
system.cpu.fetch.cacheLines                   7377495                       # Number of cache lines fetched (Count)
system.cpu.fetch.icacheSquashes                116189                       # Number of outstanding Icache misses that were squashed (Count)
system.cpu.fetch.nisnDist::samples           34559816                       # Number of instructions fetched each cycle (Total) (Count)
system.cpu.fetch.nisnDist::mean              3.109371                       # Number of instructions fetched each cycle (Total) (Count)
system.cpu.fetch.nisnDist::stdev             3.491600                       # Number of instructions fetched each cycle (Total) (Count)
system.cpu.fetch.nisnDist::underflows               0      0.00%      0.00% # Number of instructions fetched each cycle (Total) (Count)
system.cpu.fetch.nisnDist::0                 16268088     47.07%     47.07% # Number of instructions fetched each cycle (Total) (Count)
system.cpu.fetch.nisnDist::1                  1240397      3.59%     50.66% # Number of instructions fetched each cycle (Total) (Count)
system.cpu.fetch.nisnDist::2                  2122984      6.14%     56.80% # Number of instructions fetched each cycle (Total) (Count)
system.cpu.fetch.nisnDist::3                  1930095      5.58%     62.39% # Number of instructions fetched each cycle (Total) (Count)
system.cpu.fetch.nisnDist::4                   512467      1.48%     63.87% # Number of instructions fetched each cycle (Total) (Count)
system.cpu.fetch.nisnDist::5                   804572      2.33%     66.20% # Number of instructions fetched each cycle (Total) (Count)
system.cpu.fetch.nisnDist::6                  1270567      3.68%     69.88% # Number of instructions fetched each cycle (Total) (Count)
system.cpu.fetch.nisnDist::7                   798652      2.31%     72.19% # Number of instructions fetched each cycle (Total) (Count)
system.cpu.fetch.nisnDist::8                  9611994     27.81%    100.00% # Number of instructions fetched each cycle (Total) (Count)
system.cpu.fetch.nisnDist::overflows                0      0.00%    100.00% # Number of instructions fetched each cycle (Total) (Count)
system.cpu.fetch.nisnDist::min_value                0                       # Number of instructions fetched each cycle (Total) (Count)
system.cpu.fetch.nisnDist::max_value                8                       # Number of instructions fetched each cycle (Total) (Count)
system.cpu.fetch.nisnDist::total             34559816                       # Number of instructions fetched each cycle (Total) (Count)
system.cpu.fetch.branchRate                  0.167500                       # Number of branch fetches per cycle (Ratio)
system.cpu.fetch.rate                        2.236853                       # Number of inst fetches per cycle ((Count/Cycle))
system.cpu.icache.demandHits::cpu.inst        7374330                       # number of demand (read+write) hits (Count)
system.cpu.icache.demandHits::total           7374330                       # number of demand (read+write) hits (Count)
system.cpu.icache.overallHits::cpu.inst       7374330                       # number of overall hits (Count)
system.cpu.icache.overallHits::total          7374330                       # number of overall hits (Count)
system.cpu.icache.demandMisses::cpu.inst         3165                       # number of demand (read+write) misses (Count)
system.cpu.icache.demandMisses::total            3165                       # number of demand (read+write) misses (Count)
system.cpu.icache.overallMisses::cpu.inst         3165                       # number of overall misses (Count)
system.cpu.icache.overallMisses::total           3165                       # number of overall misses (Count)
system.cpu.icache.demandMissLatency::cpu.inst    229038999                       # number of demand (read+write) miss ticks (Tick)
system.cpu.icache.demandMissLatency::total    229038999                       # number of demand (read+write) miss ticks (Tick)
system.cpu.icache.overallMissLatency::cpu.inst    229038999                       # number of overall miss ticks (Tick)
system.cpu.icache.overallMissLatency::total    229038999                       # number of overall miss ticks (Tick)
system.cpu.icache.demandAccesses::cpu.inst      7377495                       # number of demand (read+write) accesses (Count)
system.cpu.icache.demandAccesses::total       7377495                       # number of demand (read+write) accesses (Count)
system.cpu.icache.overallAccesses::cpu.inst      7377495                       # number of overall (read+write) accesses (Count)
system.cpu.icache.overallAccesses::total      7377495                       # number of overall (read+write) accesses (Count)
system.cpu.icache.demandMissRate::cpu.inst     0.000429                       # miss rate for demand accesses (Ratio)
system.cpu.icache.demandMissRate::total      0.000429                       # miss rate for demand accesses (Ratio)
system.cpu.icache.overallMissRate::cpu.inst     0.000429                       # miss rate for overall accesses (Ratio)
system.cpu.icache.overallMissRate::total     0.000429                       # miss rate for overall accesses (Ratio)
system.cpu.icache.demandAvgMissLatency::cpu.inst 72366.192417                       # average overall miss latency in ticks ((Tick/Count))
system.cpu.icache.demandAvgMissLatency::total 72366.192417                       # average overall miss latency in ticks ((Tick/Count))
system.cpu.icache.overallAvgMissLatency::cpu.inst 72366.192417                       # average overall miss latency ((Tick/Count))
system.cpu.icache.overallAvgMissLatency::total 72366.192417                       # average overall miss latency ((Tick/Count))
system.cpu.icache.blockedCycles::no_mshrs          338                       # number of cycles access was blocked (Cycle)
system.cpu.icache.blockedCycles::no_targets            0                       # number of cycles access was blocked (Cycle)
system.cpu.icache.blockedCauses::no_mshrs            8                       # number of times access was blocked (Count)
system.cpu.icache.blockedCauses::no_targets            0                       # number of times access was blocked (Count)
system.cpu.icache.avgBlocked::no_mshrs      42.250000                       # average number of cycles each access was blocked ((Cycle/Count))
system.cpu.icache.avgBlocked::no_targets          nan                       # average number of cycles each access was blocked ((Cycle/Count))
system.cpu.icache.demandMshrHits::cpu.inst          659                       # number of demand (read+write) MSHR hits (Count)
system.cpu.icache.demandMshrHits::total           659                       # number of demand (read+write) MSHR hits (Count)
system.cpu.icache.overallMshrHits::cpu.inst          659                       # number of overall MSHR hits (Count)
system.cpu.icache.overallMshrHits::total          659                       # number of overall MSHR hits (Count)
system.cpu.icache.demandMshrMisses::cpu.inst         2506                       # number of demand (read+write) MSHR misses (Count)
system.cpu.icache.demandMshrMisses::total         2506                       # number of demand (read+write) MSHR misses (Count)
system.cpu.icache.overallMshrMisses::cpu.inst         2506                       # number of overall MSHR misses (Count)
system.cpu.icache.overallMshrMisses::total         2506                       # number of overall MSHR misses (Count)
system.cpu.icache.demandMshrMissLatency::cpu.inst    182419999                       # number of demand (read+write) MSHR miss ticks (Tick)
system.cpu.icache.demandMshrMissLatency::total    182419999                       # number of demand (read+write) MSHR miss ticks (Tick)
system.cpu.icache.overallMshrMissLatency::cpu.inst    182419999                       # number of overall MSHR miss ticks (Tick)
system.cpu.icache.overallMshrMissLatency::total    182419999                       # number of overall MSHR miss ticks (Tick)
system.cpu.icache.demandMshrMissRate::cpu.inst     0.000340                       # mshr miss ratio for demand accesses (Ratio)
system.cpu.icache.demandMshrMissRate::total     0.000340                       # mshr miss ratio for demand accesses (Ratio)
system.cpu.icache.overallMshrMissRate::cpu.inst     0.000340                       # mshr miss ratio for overall accesses (Ratio)
system.cpu.icache.overallMshrMissRate::total     0.000340                       # mshr miss ratio for overall accesses (Ratio)
system.cpu.icache.demandAvgMshrMissLatency::cpu.inst 72793.295690                       # average overall mshr miss latency ((Tick/Count))
system.cpu.icache.demandAvgMshrMissLatency::total 72793.295690                       # average overall mshr miss latency ((Tick/Count))
system.cpu.icache.overallAvgMshrMissLatency::cpu.inst 72793.295690                       # average overall mshr miss latency ((Tick/Count))
system.cpu.icache.overallAvgMshrMissLatency::total 72793.295690                       # average overall mshr miss latency ((Tick/Count))
system.cpu.icache.replacements                   1994                       # number of replacements (Count)
system.cpu.icache.ReadReq.hits::cpu.inst      7374330                       # number of ReadReq hits (Count)
system.cpu.icache.ReadReq.hits::total         7374330                       # number of ReadReq hits (Count)
system.cpu.icache.ReadReq.misses::cpu.inst         3165                       # number of ReadReq misses (Count)
system.cpu.icache.ReadReq.misses::total          3165                       # number of ReadReq misses (Count)
system.cpu.icache.ReadReq.missLatency::cpu.inst    229038999                       # number of ReadReq miss ticks (Tick)
system.cpu.icache.ReadReq.missLatency::total    229038999                       # number of ReadReq miss ticks (Tick)
system.cpu.icache.ReadReq.accesses::cpu.inst      7377495                       # number of ReadReq accesses(hits+misses) (Count)
system.cpu.icache.ReadReq.accesses::total      7377495                       # number of ReadReq accesses(hits+misses) (Count)
system.cpu.icache.ReadReq.missRate::cpu.inst     0.000429                       # miss rate for ReadReq accesses (Ratio)
system.cpu.icache.ReadReq.missRate::total     0.000429                       # miss rate for ReadReq accesses (Ratio)
system.cpu.icache.ReadReq.avgMissLatency::cpu.inst 72366.192417                       # average ReadReq miss latency ((Tick/Count))
system.cpu.icache.ReadReq.avgMissLatency::total 72366.192417                       # average ReadReq miss latency ((Tick/Count))
system.cpu.icache.ReadReq.mshrHits::cpu.inst          659                       # number of ReadReq MSHR hits (Count)
system.cpu.icache.ReadReq.mshrHits::total          659                       # number of ReadReq MSHR hits (Count)
system.cpu.icache.ReadReq.mshrMisses::cpu.inst         2506                       # number of ReadReq MSHR misses (Count)
system.cpu.icache.ReadReq.mshrMisses::total         2506                       # number of ReadReq MSHR misses (Count)
system.cpu.icache.ReadReq.mshrMissLatency::cpu.inst    182419999                       # number of ReadReq MSHR miss ticks (Tick)
system.cpu.icache.ReadReq.mshrMissLatency::total    182419999                       # number of ReadReq MSHR miss ticks (Tick)
system.cpu.icache.ReadReq.mshrMissRate::cpu.inst     0.000340                       # mshr miss rate for ReadReq accesses (Ratio)
system.cpu.icache.ReadReq.mshrMissRate::total     0.000340                       # mshr miss rate for ReadReq accesses (Ratio)
system.cpu.icache.ReadReq.avgMshrMissLatency::cpu.inst 72793.295690                       # average ReadReq mshr miss latency ((Tick/Count))
system.cpu.icache.ReadReq.avgMshrMissLatency::total 72793.295690                       # average ReadReq mshr miss latency ((Tick/Count))
system.cpu.icache.power_state.pwrStateResidencyTicks::UNDEFINED  34625077000                       # Cumulative time (in ticks) in various power states (Tick)
system.cpu.icache.tags.tagsInUse           511.297210                       # Average ticks per tags in use ((Tick/Count))
system.cpu.icache.tags.totalRefs              7376836                       # Total number of references to valid blocks. (Count)
system.cpu.icache.tags.sampledRefs               2506                       # Sample count of references to valid blocks. (Count)
system.cpu.icache.tags.avgRefs            2943.669593                       # Average number of references to valid blocks. ((Count/Count))
system.cpu.icache.tags.warmupTick              107000                       # The tick when the warmup percentage was hit. (Tick)
system.cpu.icache.tags.occupancies::cpu.inst   511.297210                       # Average occupied blocks per tick, per requestor ((Count/Tick))
system.cpu.icache.tags.avgOccs::cpu.inst     0.998627                       # Average percentage of cache occupancy ((Ratio/Tick))
system.cpu.icache.tags.avgOccs::total        0.998627                       # Average percentage of cache occupancy ((Ratio/Tick))
system.cpu.icache.tags.occupanciesTaskId::1024          512                       # Occupied blocks per task id (Count)
system.cpu.icache.tags.ageTaskId_1024::2           20                       # Occupied blocks per task id, per block age (Count)
system.cpu.icache.tags.ageTaskId_1024::3            3                       # Occupied blocks per task id, per block age (Count)
system.cpu.icache.tags.ageTaskId_1024::4          489                       # Occupied blocks per task id, per block age (Count)
system.cpu.icache.tags.ratioOccsTaskId::1024            1                       # Ratio of occupied blocks and all blocks, per task id (Ratio)
system.cpu.icache.tags.tagAccesses           14757496                       # Number of tag accesses (Count)
system.cpu.icache.tags.dataAccesses          14757496                       # Number of data accesses (Count)
system.cpu.icache.tags.power_state.pwrStateResidencyTicks::UNDEFINED  34625077000                       # Cumulative time (in ticks) in various power states (Tick)
system.cpu.iew.idleCycles                           0                       # Number of cycles IEW is idle (Cycle)
system.cpu.iew.squashCycles                    454493                       # Number of cycles IEW is squashing (Cycle)
system.cpu.iew.blockCycles                    3325886                       # Number of cycles IEW is blocking (Cycle)
system.cpu.iew.unblockCycles                   120695                       # Number of cycles IEW is unblocking (Cycle)
system.cpu.iew.dispatchedInsts               92846500                       # Number of instructions dispatched to IQ (Count)
system.cpu.iew.dispSquashedInsts                 8994                       # Number of squashed instructions skipped by dispatch (Count)
system.cpu.iew.dispLoadInsts                 30526852                       # Number of dispatched load instructions (Count)
system.cpu.iew.dispStoreInsts                 5027596                       # Number of dispatched store instructions (Count)
system.cpu.iew.dispNonSpecInsts                   495                       # Number of dispatched non-speculative instructions (Count)
system.cpu.iew.iqFullEvents                       954                       # Number of times the IQ has become full, causing a stall (Count)
system.cpu.iew.lsqFullEvents                   119163                       # Number of times the LSQ has become full, causing a stall (Count)
system.cpu.iew.memOrderViolationEvents           5624                       # Number of memory order violations (Count)
system.cpu.iew.predictedTakenIncorrect         313227                       # Number of branches that were predicted taken incorrectly (Count)
system.cpu.iew.predictedNotTakenIncorrect       151135                       # Number of branches that were predicted not taken incorrectly (Count)
system.cpu.iew.branchMispredicts               464362                       # Number of branch mispredicts detected at execute (Count)
system.cpu.iew.instsToCommit                 78899081                       # Cumulative count of insts sent to commit (Count)
system.cpu.iew.writebackCount                78590984                       # Cumulative count of insts written-back (Count)
system.cpu.iew.producerInst                  68334772                       # Number of instructions producing a value (Count)
system.cpu.iew.consumerInst                  96316541                       # Number of instructions consuming a value (Count)
system.cpu.iew.wbRate                        2.269771                       # Insts written-back per cycle ((Count/Cycle))
system.cpu.iew.wbFanout                      0.709481                       # Average fanout of values written-back ((Count/Count))
system.cpu.interrupts.clk_domain.clock          16000                       # Clock period in ticks (Tick)
system.cpu.lsq0.forwLoads                     5167357                       # Number of loads that had data forwarded from stores (Count)
system.cpu.lsq0.squashedLoads                 8664500                       # Number of loads squashed (Count)
system.cpu.lsq0.ignoredResponses                 3100                       # Number of memory responses ignored because the instruction is squashed (Count)
system.cpu.lsq0.memOrderViolation                5624                       # Number of memory ordering violations (Count)
system.cpu.lsq0.squashedStores                1388329                       # Number of stores squashed (Count)
system.cpu.lsq0.rescheduledLoads                 5274                       # Number of loads that were rescheduled (Count)
system.cpu.lsq0.blockedByCache                   1146                       # Number of times an access to memory failed due to the cache being blocked (Count)
system.cpu.lsq0.loadToUse::samples           21859383                       # Distribution of cycle latency between the first time a load is issued and its completion (Unspecified)
system.cpu.lsq0.loadToUse::mean              3.156984                       # Distribution of cycle latency between the first time a load is issued and its completion (Unspecified)
system.cpu.lsq0.loadToUse::stdev             1.622035                       # Distribution of cycle latency between the first time a load is issued and its completion (Unspecified)
system.cpu.lsq0.loadToUse::0-9               21807724     99.76%     99.76% # Distribution of cycle latency between the first time a load is issued and its completion (Unspecified)
system.cpu.lsq0.loadToUse::10-19                10468      0.05%     99.81% # Distribution of cycle latency between the first time a load is issued and its completion (Unspecified)
system.cpu.lsq0.loadToUse::20-29                38291      0.18%     99.99% # Distribution of cycle latency between the first time a load is issued and its completion (Unspecified)
system.cpu.lsq0.loadToUse::30-39                  820      0.00%     99.99% # Distribution of cycle latency between the first time a load is issued and its completion (Unspecified)
system.cpu.lsq0.loadToUse::40-49                   66      0.00%     99.99% # Distribution of cycle latency between the first time a load is issued and its completion (Unspecified)
system.cpu.lsq0.loadToUse::50-59                   14      0.00%     99.99% # Distribution of cycle latency between the first time a load is issued and its completion (Unspecified)
system.cpu.lsq0.loadToUse::60-69                    9      0.00%     99.99% # Distribution of cycle latency between the first time a load is issued and its completion (Unspecified)
system.cpu.lsq0.loadToUse::70-79                   24      0.00%     99.99% # Distribution of cycle latency between the first time a load is issued and its completion (Unspecified)
system.cpu.lsq0.loadToUse::80-89                  240      0.00%     99.99% # Distribution of cycle latency between the first time a load is issued and its completion (Unspecified)
system.cpu.lsq0.loadToUse::90-99                  913      0.00%    100.00% # Distribution of cycle latency between the first time a load is issued and its completion (Unspecified)
system.cpu.lsq0.loadToUse::100-109                343      0.00%    100.00% # Distribution of cycle latency between the first time a load is issued and its completion (Unspecified)
system.cpu.lsq0.loadToUse::110-119                242      0.00%    100.00% # Distribution of cycle latency between the first time a load is issued and its completion (Unspecified)
[...]
system.mem_ctrl.requestorReadAvgLat::cpu.inst     28176.74                       # Per-requestor read average memory access latency ((Tick/Count))
system.mem_ctrl.requestorReadAvgLat::cpu.data     27098.76                       # Per-requestor read average memory access latency ((Tick/Count))
system.mem_ctrl.dram.bytesRead::cpu.inst        99584                       # Number of bytes read from this memory (Byte)
system.mem_ctrl.dram.bytesRead::cpu.data       243008                       # Number of bytes read from this memory (Byte)
system.mem_ctrl.dram.bytesRead::total          342592                       # Number of bytes read from this memory (Byte)
system.mem_ctrl.dram.bytesInstRead::cpu.inst        99584                       # Number of instructions bytes read from this memory (Byte)
system.mem_ctrl.dram.bytesInstRead::total        99584                       # Number of instructions bytes read from this memory (Byte)
system.mem_ctrl.dram.numReads::cpu.inst          1556                       # Number of read requests responded to by this memory (Count)
system.mem_ctrl.dram.numReads::cpu.data          3797                       # Number of read requests responded to by this memory (Count)
system.mem_ctrl.dram.numReads::total             5353                       # Number of read requests responded to by this memory (Count)
system.mem_ctrl.dram.bwRead::cpu.inst         2876066                       # Total read bandwidth from this memory ((Byte/Second))
system.mem_ctrl.dram.bwRead::cpu.data         7018266                       # Total read bandwidth from this memory ((Byte/Second))
system.mem_ctrl.dram.bwRead::total            9894332                       # Total read bandwidth from this memory ((Byte/Second))
system.mem_ctrl.dram.bwInstRead::cpu.inst      2876066                       # Instruction read bandwidth from this memory ((Byte/Second))
system.mem_ctrl.dram.bwInstRead::total        2876066                       # Instruction read bandwidth from this memory ((Byte/Second))
system.mem_ctrl.dram.bwTotal::cpu.inst        2876066                       # Total bandwidth to/from this memory ((Byte/Second))
system.mem_ctrl.dram.bwTotal::cpu.data        7018266                       # Total bandwidth to/from this memory ((Byte/Second))
system.mem_ctrl.dram.bwTotal::total           9894332                       # Total bandwidth to/from this memory ((Byte/Second))
system.mem_ctrl.dram.readBursts                  5353                       # Number of DRAM read bursts (Count)
system.mem_ctrl.dram.writeBursts                    0                       # Number of DRAM write bursts (Count)
system.mem_ctrl.dram.perBankRdBursts::0           227                       # Per bank write bursts (Count)
system.mem_ctrl.dram.perBankRdBursts::1           232                       # Per bank write bursts (Count)
system.mem_ctrl.dram.perBankRdBursts::2           327                       # Per bank write bursts (Count)
system.mem_ctrl.dram.perBankRdBursts::3           199                       # Per bank write bursts (Count)
system.mem_ctrl.dram.perBankRdBursts::4           369                       # Per bank write bursts (Count)
system.mem_ctrl.dram.perBankRdBursts::5           299                       # Per bank write bursts (Count)
system.mem_ctrl.dram.perBankRdBursts::6           222                       # Per bank write bursts (Count)
system.mem_ctrl.dram.perBankRdBursts::7           290                       # Per bank write bursts (Count)
system.mem_ctrl.dram.perBankRdBursts::8           468                       # Per bank write bursts (Count)
system.mem_ctrl.dram.perBankRdBursts::9           407                       # Per bank write bursts (Count)
system.mem_ctrl.dram.perBankRdBursts::10          453                       # Per bank write bursts (Count)
system.mem_ctrl.dram.perBankRdBursts::11          501                       # Per bank write bursts (Count)
system.mem_ctrl.dram.perBankRdBursts::12          382                       # Per bank write bursts (Count)
system.mem_ctrl.dram.perBankRdBursts::13          331                       # Per bank write bursts (Count)
system.mem_ctrl.dram.perBankRdBursts::14          309                       # Per bank write bursts (Count)
system.mem_ctrl.dram.perBankRdBursts::15          337                       # Per bank write bursts (Count)
system.mem_ctrl.dram.perBankWrBursts::0             0                       # Per bank write bursts (Count)
system.mem_ctrl.dram.perBankWrBursts::1             0                       # Per bank write bursts (Count)
system.mem_ctrl.dram.perBankWrBursts::2             0                       # Per bank write bursts (Count)
system.mem_ctrl.dram.perBankWrBursts::3             0                       # Per bank write bursts (Count)
system.mem_ctrl.dram.perBankWrBursts::4             0                       # Per bank write bursts (Count)
system.mem_ctrl.dram.perBankWrBursts::5             0                       # Per bank write bursts (Count)
system.mem_ctrl.dram.perBankWrBursts::6             0                       # Per bank write bursts (Count)
system.mem_ctrl.dram.perBankWrBursts::7             0                       # Per bank write bursts (Count)
system.mem_ctrl.dram.perBankWrBursts::8             0                       # Per bank write bursts (Count)
system.mem_ctrl.dram.perBankWrBursts::9             0                       # Per bank write bursts (Count)
system.mem_ctrl.dram.perBankWrBursts::10            0                       # Per bank write bursts (Count)
system.mem_ctrl.dram.perBankWrBursts::11            0                       # Per bank write bursts (Count)
system.mem_ctrl.dram.perBankWrBursts::12            0                       # Per bank write bursts (Count)
system.mem_ctrl.dram.perBankWrBursts::13            0                       # Per bank write bursts (Count)
system.mem_ctrl.dram.perBankWrBursts::14            0                       # Per bank write bursts (Count)
system.mem_ctrl.dram.perBankWrBursts::15            0                       # Per bank write bursts (Count)
system.mem_ctrl.dram.totQLat                 46368250                       # Total ticks spent queuing (Tick)
system.mem_ctrl.dram.totBusLat               26765000                       # Total ticks spent in databus transfers (Tick)
system.mem_ctrl.dram.totMemAccLat           146737000                       # Total ticks spent from burst creation until serviced by the DRAM (Tick)
system.mem_ctrl.dram.avgQLat                  8662.11                       # Average queueing delay per DRAM burst ((Tick/Count))
system.mem_ctrl.dram.avgBusLat                5000.00                       # Average bus latency per DRAM burst ((Tick/Count))
system.mem_ctrl.dram.avgMemAccLat            27412.11                       # Average memory access latency per DRAM burst ((Tick/Count))
system.mem_ctrl.dram.readRowHits                 4136                       # Number of row buffer hits during reads (Count)
system.mem_ctrl.dram.writeRowHits                   0                       # Number of row buffer hits during writes (Count)
system.mem_ctrl.dram.readRowHitRate             77.27                       # Row buffer hit rate for reads (Ratio)
system.mem_ctrl.dram.writeRowHitRate              nan                       # Row buffer hit rate for writes (Ratio)
system.mem_ctrl.dram.bytesPerActivate::samples         1217                       # Bytes accessed per row activation (Byte)
system.mem_ctrl.dram.bytesPerActivate::mean   281.505341                       # Bytes accessed per row activation (Byte)
system.mem_ctrl.dram.bytesPerActivate::gmean   183.750995                       # Bytes accessed per row activation (Byte)
system.mem_ctrl.dram.bytesPerActivate::stdev   283.744688                       # Bytes accessed per row activation (Byte)
system.mem_ctrl.dram.bytesPerActivate::0-127          379     31.14%     31.14% # Bytes accessed per row activation (Byte)
system.mem_ctrl.dram.bytesPerActivate::128-255          376     30.90%     62.04% # Bytes accessed per row activation (Byte)
system.mem_ctrl.dram.bytesPerActivate::256-383          138     11.34%     73.38% # Bytes accessed per row activation (Byte)
system.mem_ctrl.dram.bytesPerActivate::384-511          137     11.26%     84.63% # Bytes accessed per row activation (Byte)
system.mem_ctrl.dram.bytesPerActivate::512-639           31      2.55%     87.18% # Bytes accessed per row activation (Byte)
system.mem_ctrl.dram.bytesPerActivate::640-767           26      2.14%     89.32% # Bytes accessed per row activation (Byte)
system.mem_ctrl.dram.bytesPerActivate::768-895           15      1.23%     90.55% # Bytes accessed per row activation (Byte)
system.mem_ctrl.dram.bytesPerActivate::896-1023           10      0.82%     91.37% # Bytes accessed per row activation (Byte)
system.mem_ctrl.dram.bytesPerActivate::1024-1151          105      8.63%    100.00% # Bytes accessed per row activation (Byte)
system.mem_ctrl.dram.bytesPerActivate::total         1217                       # Bytes accessed per row activation (Byte)
system.mem_ctrl.dram.bytesRead                 342592                       # Total bytes read (Byte)
system.mem_ctrl.dram.bytesWritten                   0                       # Total bytes written (Byte)
system.mem_ctrl.dram.avgRdBW                 9.894332                       # Average DRAM read bandwidth in MiBytes/s ((Byte/Second))
system.mem_ctrl.dram.avgWrBW                        0                       # Average DRAM write bandwidth in MiBytes/s ((Byte/Second))
system.mem_ctrl.dram.peakBW                  12800.00                       # Theoretical peak bandwidth in MiByte/s ((Byte/Second))
system.mem_ctrl.dram.busUtil                     0.08                       # Data bus utilization in percentage (Ratio)
system.mem_ctrl.dram.busUtilRead                 0.08                       # Data bus utilization in percentage for reads (Ratio)
system.mem_ctrl.dram.busUtilWrite                0.00                       # Data bus utilization in percentage for writes (Ratio)
system.mem_ctrl.dram.pageHitRate                77.27                       # Row buffer hit rate, read and write combined (Ratio)
system.mem_ctrl.dram.power_state.pwrStateResidencyTicks::UNDEFINED  34625077000                       # Cumulative time (in ticks) in various power states (Tick)
system.mem_ctrl.dram.rank0.actEnergy          4169760                       # Energy for activate commands per rank (pJ) (Joule)
system.mem_ctrl.dram.rank0.preEnergy          2216280                       # Energy for precharge commands per rank (pJ) (Joule)
system.mem_ctrl.dram.rank0.readEnergy        15458100                       # Energy for read commands per rank (pJ) (Joule)
system.mem_ctrl.dram.rank0.writeEnergy              0                       # Energy for write commands per rank (pJ) (Joule)
system.mem_ctrl.dram.rank0.refreshEnergy 2732689440.000000                       # Energy for refresh commands per rank (pJ) (Joule)
system.mem_ctrl.dram.rank0.actBackEnergy   1056680250                       # Energy for active background per rank (pJ) (Joule)
system.mem_ctrl.dram.rank0.preBackEnergy  12406193760                       # Energy for precharge background per rank (pJ) (Joule)
system.mem_ctrl.dram.rank0.actPowerDownEnergy            0                       # Energy for active power-down per rank (pJ) (Joule)
system.mem_ctrl.dram.rank0.prePowerDownEnergy            0                       # Energy for precharge power-down per rank (pJ) (Joule)
system.mem_ctrl.dram.rank0.selfRefreshEnergy            0                       # Energy for self refresh per rank (pJ) (Joule)
system.mem_ctrl.dram.rank0.totalEnergy    16217407590                       # Total energy per rank (pJ) (Joule)
system.mem_ctrl.dram.rank0.averagePower    468.371741                       # Core power per rank (mW) (Watt)
system.mem_ctrl.dram.rank0.totalIdleTime            0                       # Total Idle time Per DRAM Rank (Tick)
system.mem_ctrl.dram.rank0.pwrStateTime::IDLE  32243820500                       # Time in different power states (Tick)
system.mem_ctrl.dram.rank0.pwrStateTime::REF   1155960000                       # Time in different power states (Tick)
system.mem_ctrl.dram.rank0.pwrStateTime::SREF            0                       # Time in different power states (Tick)
system.mem_ctrl.dram.rank0.pwrStateTime::PRE_PDN            0                       # Time in different power states (Tick)
system.mem_ctrl.dram.rank0.pwrStateTime::ACT   1225296500                       # Time in different power states (Tick)
system.mem_ctrl.dram.rank0.pwrStateTime::ACT_PDN            0                       # Time in different power states (Tick)
system.mem_ctrl.dram.rank1.actEnergy          4519620                       # Energy for activate commands per rank (pJ) (Joule)
system.mem_ctrl.dram.rank1.preEnergy          2402235                       # Energy for precharge commands per rank (pJ) (Joule)
system.mem_ctrl.dram.rank1.readEnergy        22762320                       # Energy for read commands per rank (pJ) (Joule)
system.mem_ctrl.dram.rank1.writeEnergy              0                       # Energy for write commands per rank (pJ) (Joule)
system.mem_ctrl.dram.rank1.refreshEnergy 2732689440.000000                       # Energy for refresh commands per rank (pJ) (Joule)
system.mem_ctrl.dram.rank1.actBackEnergy   1097476290                       # Energy for active background per rank (pJ) (Joule)
system.mem_ctrl.dram.rank1.preBackEnergy  12371839200                       # Energy for precharge background per rank (pJ) (Joule)
system.mem_ctrl.dram.rank1.actPowerDownEnergy            0                       # Energy for active power-down per rank (pJ) (Joule)
system.mem_ctrl.dram.rank1.prePowerDownEnergy            0                       # Energy for precharge power-down per rank (pJ) (Joule)
system.mem_ctrl.dram.rank1.selfRefreshEnergy            0                       # Energy for self refresh per rank (pJ) (Joule)
system.mem_ctrl.dram.rank1.totalEnergy    16231689105                       # Total energy per rank (pJ) (Joule)
system.mem_ctrl.dram.rank1.averagePower    468.784202                       # Core power per rank (mW) (Watt)
system.mem_ctrl.dram.rank1.totalIdleTime            0                       # Total Idle time Per DRAM Rank (Tick)
system.mem_ctrl.dram.rank1.pwrStateTime::IDLE  32153607750                       # Time in different power states (Tick)
system.mem_ctrl.dram.rank1.pwrStateTime::REF   1155960000                       # Time in different power states (Tick)
system.mem_ctrl.dram.rank1.pwrStateTime::SREF            0                       # Time in different power states (Tick)
system.mem_ctrl.dram.rank1.pwrStateTime::PRE_PDN            0                       # Time in different power states (Tick)
system.mem_ctrl.dram.rank1.pwrStateTime::ACT   1315509250                       # Time in different power states (Tick)
system.mem_ctrl.dram.rank1.pwrStateTime::ACT_PDN            0                       # Time in different power states (Tick)
system.mem_ctrl.power_state.pwrStateResidencyTicks::UNDEFINED  34625077000                       # Cumulative time (in ticks) in various power states (Tick)
system.membus.transDist::ReadResp                2538                       # Transaction distribution (Count)
system.membus.transDist::ReadExReq               2815                       # Transaction distribution (Count)
system.membus.transDist::ReadExResp              2815                       # Transaction distribution (Count)
system.membus.transDist::ReadSharedReq           2538                       # Transaction distribution (Count)
system.membus.pktCount_system.l2cache.mem_side_port::system.mem_ctrl.port        10706                       # Packet count per connected requestor and responder (Count)
system.membus.pktCount_system.l2cache.mem_side_port::total        10706                       # Packet count per connected requestor and responder (Count)
system.membus.pktCount::total                   10706                       # Packet count per connected requestor and responder (Count)
system.membus.pktSize_system.l2cache.mem_side_port::system.mem_ctrl.port       342592                       # Cumulative packet size per connected requestor and responder (Byte)
system.membus.pktSize_system.l2cache.mem_side_port::total       342592                       # Cumulative packet size per connected requestor and responder (Byte)
system.membus.pktSize::total                   342592                       # Cumulative packet size per connected requestor and responder (Byte)
system.membus.snoops                                0                       # Total snoops (Count)
system.membus.snoopTraffic                          0                       # Total snoop traffic (Byte)
system.membus.snoopFanout::samples               5353                       # Request fanout histogram (Count)
system.membus.snoopFanout::mean                     0                       # Request fanout histogram (Count)
system.membus.snoopFanout::stdev                    0                       # Request fanout histogram (Count)
system.membus.snoopFanout::underflows               0      0.00%      0.00% # Request fanout histogram (Count)
system.membus.snoopFanout::0                     5353    100.00%    100.00% # Request fanout histogram (Count)
system.membus.snoopFanout::1                        0      0.00%    100.00% # Request fanout histogram (Count)
system.membus.snoopFanout::overflows                0      0.00%    100.00% # Request fanout histogram (Count)
system.membus.snoopFanout::min_value                0                       # Request fanout histogram (Count)
system.membus.snoopFanout::max_value                0                       # Request fanout histogram (Count)
system.membus.snoopFanout::total                 5353                       # Request fanout histogram (Count)
system.membus.power_state.pwrStateResidencyTicks::UNDEFINED  34625077000                       # Cumulative time (in ticks) in various power states (Tick)
system.membus.reqLayer2.occupancy             5353000                       # Layer occupancy (ticks) (Tick)
system.membus.reqLayer2.utilization               0.0                       # Layer utilization (Ratio)
system.membus.respLayer0.occupancy           28332250                       # Layer occupancy (ticks) (Tick)
system.membus.respLayer0.utilization              0.0                       # Layer utilization (Ratio)
system.membus.snoop_filter.totRequests           5353                       # Total number of requests made to the snoop filter. (Count)
system.membus.snoop_filter.hitSingleRequests            0                       # Number of requests hitting in the snoop filter with a single holder of the requested data. (Count)
system.membus.snoop_filter.hitMultiRequests            0                       # Number of requests hitting in the snoop filter with multiple (>1) holders of the requested data. (Count)
system.membus.snoop_filter.totSnoops                0                       # Total number of snoops made to the snoop filter. (Count)
system.membus.snoop_filter.hitSingleSnoops            0                       # Number of snoops hitting in the snoop filter with a single holder of the requested data. (Count)
system.membus.snoop_filter.hitMultiSnoops            0                       # Number of snoops hitting in the snoop filter with multiple (>1) holders of the requested data. (Count)
system.workload.inst.arm                            0                       # number of arm instructions executed (Count)
system.workload.inst.quiesce                        0                       # number of quiesce instructions executed (Count)

---------- End Simulation Statistics   ----------
