
---------- Begin Simulation Statistics ----------
simSeconds                                   0.074325                       # Number of seconds simulated (Second)
simTicks                                  74325261000                       # Number of ticks simulated (Tick)
finalTick                                 74325261000                       # Number of ticks from beginning of simulation (restored from checkpoints and never reset) (Tick)
simFreq                                  1000000000000                       # The number of ticks per simulated second ((Tick/Second))
hostSeconds                                    410.01                       # Real time elapsed on the host (Second)
hostTickRate                                181275442                       # The number of ticks simulated per host second (ticks/s) ((Tick/Second))
hostMemory                                    8542568                       # Number of bytes of host memory used (Byte)
simInsts                                     50000004                       # Number of instructions simulated (Count)
simOps                                       65070783                       # Number of ops (including micro ops) simulated (Count)
hostInstRate                                   121947                       # Simulator instruction rate (inst/s) ((Count/Second))
hostOpRate                                     158704                       # Simulator op (including micro ops) rate (op/s) ((Count/Second))
system.clk_domain.clock                          1000                       # Clock period in ticks (Tick)
system.clk_domain.voltage_domain.voltage            1                       # Voltage in Volts (Volt)
system.cpu.numCycles                         74325262                       # Number of cpu cycles simulated (Cycle)
system.cpu.numWorkItemsStarted                      0                       # Number of work items this cpu started (Count)
system.cpu.numWorkItemsCompleted                    0                       # Number of work items this cpu completed (Count)
system.cpu.instsAdded                       206904860                       # Number of instructions added to the IQ (excludes non-spec) (Count)
system.cpu.nonSpecInstsAdded                     5959                       # Number of non-speculative instructions added to the IQ (Count)
system.cpu.instsIssued                      152889803                       # Number of instructions issued (Count)
system.cpu.squashedInstsIssued                 213279                       # Number of squashed instructions issued (Count)
system.cpu.squashedInstsExamined            141839962                       # Number of squashed instructions iterated over during squash; mainly for profiling (Count)
system.cpu.squashedOperandsExamined         273090176                       # Number of squashed operands that are examined and possibly removed from graph (Count)
system.cpu.squashedNonSpecRemoved                5629                       # Number of squashed non-spec instructions that were removed (Count)
system.cpu.numIssuedDist::samples            74263214                       # Number of insts issued each cycle (Count)
system.cpu.numIssuedDist::mean               2.058756                       # Number of insts issued each cycle (Count)
system.cpu.numIssuedDist::stdev              2.199562                       # Number of insts issued each cycle (Count)
system.cpu.numIssuedDist::underflows                0      0.00%      0.00% # Number of insts issued each cycle (Count)
system.cpu.numIssuedDist::0                  31727329     42.72%     42.72% # Number of insts issued each cycle (Count)
system.cpu.numIssuedDist::1                   4540821      6.11%     48.84% # Number of insts issued each cycle (Count)
system.cpu.numIssuedDist::2                   7380143      9.94%     58.78% # Number of insts issued each cycle (Count)
system.cpu.numIssuedDist::3                  10243265     13.79%     72.57% # Number of insts issued each cycle (Count)
system.cpu.numIssuedDist::4                   8846098     11.91%     84.48% # Number of insts issued each cycle (Count)
system.cpu.numIssuedDist::5                   5501661      7.41%     91.89% # Number of insts issued each cycle (Count)
system.cpu.numIssuedDist::6                   3284466      4.42%     96.31% # Number of insts issued each cycle (Count)
system.cpu.numIssuedDist::7                   1656040      2.23%     98.54% # Number of insts issued each cycle (Count)
system.cpu.numIssuedDist::8                   1083391      1.46%    100.00% # Number of insts issued each cycle (Count)
system.cpu.numIssuedDist::overflows                 0      0.00%    100.00% # Number of insts issued each cycle (Count)
system.cpu.numIssuedDist::min_value                 0                       # Number of insts issued each cycle (Count)
system.cpu.numIssuedDist::max_value                 8                       # Number of insts issued each cycle (Count)
system.cpu.numIssuedDist::total              74263214                       # Number of insts issued each cycle (Count)
system.cpu.statFuBusy::No_OpClass                   0      0.00%      0.00% # attempts to use FU when none available (Count)
system.cpu.statFuBusy::IntAlu                  161559      8.58%      8.58% # attempts to use FU when none available (Count)
system.cpu.statFuBusy::IntMult                      0      0.00%      8.58% # attempts to use FU when none available (Count)
system.cpu.statFuBusy::IntDiv                       0      0.00%      8.58% # attempts to use FU when none available (Count)
system.cpu.statFuBusy::FloatAdd                     1      0.00%      8.58% # attempts to use FU when none available (Count)
system.cpu.statFuBusy::FloatCmp                     0      0.00%      8.58% # attempts to use FU when none available (Count)
system.cpu.statFuBusy::FloatCvt                     0      0.00%      8.58% # attempts to use FU when none available (Count)
system.cpu.statFuBusy::FloatMult                    0      0.00%      8.58% # attempts to use FU when none available (Count)
system.cpu.statFuBusy::FloatMultAcc                 0      0.00%      8.58% # attempts to use FU when none available (Count)
system.cpu.statFuBusy::FloatDiv                     0      0.00%      8.58% # attempts to use FU when none available (Count)
system.cpu.statFuBusy::FloatMisc                    0      0.00%      8.58% # attempts to use FU when none available (Count)
system.cpu.statFuBusy::FloatSqrt                    0      0.00%      8.58% # attempts to use FU when none available (Count)
system.cpu.statFuBusy::SimdAdd                      0      0.00%      8.58% # attempts to use FU when none available (Count)
system.cpu.statFuBusy::SimdAddAcc                   0      0.00%      8.58% # attempts to use FU when none available (Count)
system.cpu.statFuBusy::SimdAlu                   7523      0.40%      8.98% # attempts to use FU when none available (Count)
system.cpu.statFuBusy::SimdCmp                      0      0.00%      8.98% # attempts to use FU when none available (Count)
system.cpu.statFuBusy::SimdCvt                   2663      0.14%      9.12% # attempts to use FU when none available (Count)
system.cpu.statFuBusy::SimdMisc                    98      0.01%      9.13% # attempts to use FU when none available (Count)
system.cpu.statFuBusy::SimdMult                     0      0.00%      9.13% # attempts to use FU when none available (Count)
system.cpu.statFuBusy::SimdMultAcc                  0      0.00%      9.13% # attempts to use FU when none available (Count)
system.cpu.statFuBusy::SimdShift                    0      0.00%      9.13% # attempts to use FU when none available (Count)
system.cpu.statFuBusy::SimdShiftAcc                 0      0.00%      9.13% # attempts to use FU when none available (Count)
system.cpu.statFuBusy::SimdDiv                      0      0.00%      9.13% # attempts to use FU when none available (Count)
system.cpu.statFuBusy::SimdSqrt                     0      0.00%      9.13% # attempts to use FU when none available (Count)
system.cpu.statFuBusy::SimdFloatAdd                37      0.00%      9.13% # attempts to use FU when none available (Count)
system.cpu.statFuBusy::SimdFloatAlu                 0      0.00%      9.13% # attempts to use FU when none available (Count)
system.cpu.statFuBusy::SimdFloatCmp                 0      0.00%      9.13% # attempts to use FU when none available (Count)
system.cpu.statFuBusy::SimdFloatCvt                 0      0.00%      9.13% # attempts to use FU when none available (Count)
system.cpu.statFuBusy::SimdFloatDiv                 0      0.00%      9.13% # attempts to use FU when none available (Count)
system.cpu.statFuBusy::SimdFloatMisc                0      0.00%      9.13% # attempts to use FU when none available (Count)
system.cpu.statFuBusy::SimdFloatMult              219      0.01%      9.14% # attempts to use FU when none available (Count)
system.cpu.statFuBusy::SimdFloatMultAcc             0      0.00%      9.14% # attempts to use FU when none available (Count)
system.cpu.statFuBusy::SimdFloatSqrt                0      0.00%      9.14% # attempts to use FU when none available (Count)
system.cpu.statFuBusy::SimdReduceAdd                0      0.00%      9.14% # attempts to use FU when none available (Count)
system.cpu.statFuBusy::SimdReduceAlu                0      0.00%      9.14% # attempts to use FU when none available (Count)
system.cpu.statFuBusy::SimdReduceCmp                0      0.00%      9.14% # attempts to use FU when none available (Count)
system.cpu.statFuBusy::SimdFloatReduceAdd            0      0.00%      9.14% # attempts to use FU when none available (Count)
system.cpu.statFuBusy::SimdFloatReduceCmp            0      0.00%      9.14% # attempts to use FU when none available (Count)
system.cpu.statFuBusy::SimdAes                      0      0.00%      9.14% # attempts to use FU when none available (Count)
system.cpu.statFuBusy::SimdAesMix                   0      0.00%      9.14% # attempts to use FU when none available (Count)
system.cpu.statFuBusy::SimdSha1Hash                 0      0.00%      9.14% # attempts to use FU when none available (Count)
system.cpu.statFuBusy::SimdSha1Hash2                0      0.00%      9.14% # attempts to use FU when none available (Count)
system.cpu.statFuBusy::SimdSha256Hash               0      0.00%      9.14% # attempts to use FU when none available (Count)
system.cpu.statFuBusy::SimdSha256Hash2              0      0.00%      9.14% # attempts to use FU when none available (Count)
system.cpu.statFuBusy::SimdShaSigma2                0      0.00%      9.14% # attempts to use FU when none available (Count)
system.cpu.statFuBusy::SimdShaSigma3                0      0.00%      9.14% # attempts to use FU when none available (Count)
system.cpu.statFuBusy::SimdPredAlu                  0      0.00%      9.14% # attempts to use FU when none available (Count)
system.cpu.statFuBusy::MemRead                1169823     62.15%     71.29% # attempts to use FU when none available (Count)
system.cpu.statFuBusy::MemWrite                533869     28.36%     99.65% # attempts to use FU when none available (Count)
system.cpu.statFuBusy::FloatMemRead              5884      0.31%     99.96% # attempts to use FU when none available (Count)
system.cpu.statFuBusy::FloatMemWrite              697      0.04%    100.00% # attempts to use FU when none available (Count)
system.cpu.statFuBusy::IprAccess                    0      0.00%    100.00% # attempts to use FU when none available (Count)
system.cpu.statFuBusy::InstPrefetch                 0      0.00%    100.00% # attempts to use FU when none available (Count)
system.cpu.statIssuedInstType_0::No_OpClass        75101      0.05%      0.05% # Number of instructions issued per FU type, per thread (Count)
system.cpu.statIssuedInstType_0::IntAlu      85680517     56.04%     56.09% # Number of instructions issued per FU type, per thread (Count)
system.cpu.statIssuedInstType_0::IntMult        70801      0.05%     56.14% # Number of instructions issued per FU type, per thread (Count)
system.cpu.statIssuedInstType_0::IntDiv        630077      0.41%     56.55% # Number of instructions issued per FU type, per thread (Count)
system.cpu.statIssuedInstType_0::FloatAdd      1369416      0.90%     57.44% # Number of instructions issued per FU type, per thread (Count)
system.cpu.statIssuedInstType_0::FloatCmp            0      0.00%     57.44% # Number of instructions issued per FU type, per thread (Count)
system.cpu.statIssuedInstType_0::FloatCvt            0      0.00%     57.44% # Number of instructions issued per FU type, per thread (Count)
system.cpu.statIssuedInstType_0::FloatMult            0      0.00%     57.44% # Number of instructions issued per FU type, per thread (Count)
system.cpu.statIssuedInstType_0::FloatMultAcc            0      0.00%     57.44% # Number of instructions issued per FU type, per thread (Count)
system.cpu.statIssuedInstType_0::FloatDiv            0      0.00%     57.44% # Number of instructions issued per FU type, per thread (Count)
system.cpu.statIssuedInstType_0::FloatMisc            0      0.00%     57.44% # Number of instructions issued per FU type, per thread (Count)
system.cpu.statIssuedInstType_0::FloatSqrt            0      0.00%     57.44% # Number of instructions issued per FU type, per thread (Count)
system.cpu.statIssuedInstType_0::SimdAdd          490      0.00%     57.44% # Number of instructions issued per FU type, per thread (Count)
system.cpu.statIssuedInstType_0::SimdAddAcc            0      0.00%     57.44% # Number of instructions issued per FU type, per thread (Count)
system.cpu.statIssuedInstType_0::SimdAlu       101504      0.07%     57.51% # Number of instructions issued per FU type, per thread (Count)
system.cpu.statIssuedInstType_0::SimdCmp          214      0.00%     57.51% # Number of instructions issued per FU type, per thread (Count)
system.cpu.statIssuedInstType_0::SimdCvt        92296      0.06%     57.57% # Number of instructions issued per FU type, per thread (Count)
system.cpu.statIssuedInstType_0::SimdMisc       275076      0.18%     57.75% # Number of instructions issued per FU type, per thread (Count)
system.cpu.statIssuedInstType_0::SimdMult            0      0.00%     57.75% # Number of instructions issued per FU type, per thread (Count)
system.cpu.statIssuedInstType_0::SimdMultAcc            0      0.00%     57.75% # Number of instructions issued per FU type, per thread (Count)
system.cpu.statIssuedInstType_0::SimdShift          289      0.00%     57.75% # Number of instructions issued per FU type, per thread (Count)
system.cpu.statIssuedInstType_0::SimdShiftAcc            0      0.00%     57.75% # Number of instructions issued per FU type, per thread (Count)
system.cpu.statIssuedInstType_0::SimdDiv            0      0.00%     57.75% # Number of instructions issued per FU type, per thread (Count)
system.cpu.statIssuedInstType_0::SimdSqrt            0      0.00%     57.75% # Number of instructions issued per FU type, per thread (Count)
system.cpu.statIssuedInstType_0::SimdFloatAdd       203339      0.13%     57.88% # Number of instructions issued per FU type, per thread (Count)
system.cpu.statIssuedInstType_0::SimdFloatAlu            0      0.00%     57.88% # Number of instructions issued per FU type, per thread (Count)
system.cpu.statIssuedInstType_0::SimdFloatCmp            0      0.00%     57.88% # Number of instructions issued per FU type, per thread (Count)
system.cpu.statIssuedInstType_0::SimdFloatCvt       473068      0.31%     58.19% # Number of instructions issued per FU type, per thread (Count)
system.cpu.statIssuedInstType_0::SimdFloatDiv        63700      0.04%     58.24% # Number of instructions issued per FU type, per thread (Count)
system.cpu.statIssuedInstType_0::SimdFloatMisc            0      0.00%     58.24% # Number of instructions issued per FU type, per thread (Count)
system.cpu.statIssuedInstType_0::SimdFloatMult        69723      0.05%     58.28% # Number of instructions issued per FU type, per thread (Count)
system.cpu.statIssuedInstType_0::SimdFloatMultAcc            0      0.00%     58.28% # Number of instructions issued per FU type, per thread (Count)
system.cpu.statIssuedInstType_0::SimdFloatSqrt            0      0.00%     58.28% # Number of instructions issued per FU type, per thread (Count)
system.cpu.statIssuedInstType_0::SimdReduceAdd            0      0.00%     58.28% # Number of instructions issued per FU type, per thread (Count)
system.cpu.statIssuedInstType_0::SimdReduceAlu            0      0.00%     58.28% # Number of instructions issued per FU type, per thread (Count)
system.cpu.statIssuedInstType_0::SimdReduceCmp            0      0.00%     58.28% # Number of instructions issued per FU type, per thread (Count)
system.cpu.statIssuedInstType_0::SimdFloatReduceAdd            0      0.00%     58.28% # Number of instructions issued per FU type, per thread (Count)
system.cpu.statIssuedInstType_0::SimdFloatReduceCmp            0      0.00%     58.28% # Number of instructions issued per FU type, per thread (Count)
system.cpu.statIssuedInstType_0::SimdAes            0      0.00%     58.28% # Number of instructions issued per FU type, per thread (Count)
system.cpu.statIssuedInstType_0::SimdAesMix            0      0.00%     58.28% # Number of instructions issued per FU type, per thread (Count)
system.cpu.statIssuedInstType_0::SimdSha1Hash            0      0.00%     58.28% # Number of instructions issued per FU type, per thread (Count)
system.cpu.statIssuedInstType_0::SimdSha1Hash2            0      0.00%     58.28% # Number of instructions issued per FU type, per thread (Count)
system.cpu.statIssuedInstType_0::SimdSha256Hash            0      0.00%     58.28% # Number of instructions issued per FU type, per thread (Count)
system.cpu.statIssuedInstType_0::SimdSha256Hash2            0      0.00%     58.28% # Number of instructions issued per FU type, per thread (Count)
system.cpu.statIssuedInstType_0::SimdShaSigma2            0      0.00%     58.28% # Number of instructions issued per FU type, per thread (Count)
system.cpu.statIssuedInstType_0::SimdShaSigma3            0      0.00%     58.28% # Number of instructions issued per FU type, per thread (Count)
system.cpu.statIssuedInstType_0::SimdPredAlu            0      0.00%     58.28% # Number of instructions issued per FU type, per thread (Count)
system.cpu.statIssuedInstType_0::MemRead     53665056     35.10%     93.38% # Number of instructions issued per FU type, per thread (Count)
system.cpu.statIssuedInstType_0::MemWrite      8894325      5.82%     99.20% # Number of instructions issued per FU type, per thread (Count)
system.cpu.statIssuedInstType_0::FloatMemRead      1021839      0.67%     99.87% # Number of instructions issued per FU type, per thread (Count)
system.cpu.statIssuedInstType_0::FloatMemWrite       202972      0.13%    100.00% # Number of instructions issued per FU type, per thread (Count)
system.cpu.statIssuedInstType_0::IprAccess            0      0.00%    100.00% # Number of instructions issued per FU type, per thread (Count)
system.cpu.statIssuedInstType_0::InstPrefetch            0      0.00%    100.00% # Number of instructions issued per FU type, per thread (Count)
system.cpu.statIssuedInstType_0::total      152889803                       # Number of instructions issued per FU type, per thread (Count)
system.cpu.issueRate                         2.057037                       # Inst issue rate ((Count/Cycle))
system.cpu.fuBusy                             1882373                       # FU busy when requested (Count)
system.cpu.fuBusyRate                        0.012312                       # FU busy rate (busy events/executed inst) ((Count/Count))
system.cpu.intInstQueueReads                374002418                       # Number of integer instruction queue reads (Count)
system.cpu.intInstQueueWrites               341062469                       # Number of integer instruction queue writes (Count)
system.cpu.intInstQueueWakeupAccesses       141533717                       # Number of integer instruction queue wakeup accesses (Count)
system.cpu.fpInstQueueReads                   8136051                       # Number of floating instruction queue reads (Count)
system.cpu.fpInstQueueWrites                  7697157                       # Number of floating instruction queue writes (Count)
system.cpu.fpInstQueueWakeupAccesses          3916314                       # Number of floating instruction queue wakeup accesses (Count)
system.cpu.vecInstQueueReads                        0                       # Number of vector instruction queue reads (Count)
system.cpu.vecInstQueueWrites                       0                       # Number of vector instruction queue writes (Count)
system.cpu.vecInstQueueWakeupAccesses               0                       # Number of vector instruction queue wakeup accesses (Count)
system.cpu.intAluAccesses                   150640606                       # Number of integer alu accesses (Count)
system.cpu.fpAluAccesses                      4056469                       # Number of floating point alu accesses (Count)
system.cpu.vecAluAccesses                           0                       # Number of vector alu accesses (Count)
system.cpu.numInsts                         148803775                       # Number of executed instructions (Count)
system.cpu.numLoadInsts                      52451080                       # Number of load instructions executed (Count)
system.cpu.numSquashedInsts                   4086025                       # Number of squashed instructions skipped in execute (Count)
system.cpu.numSwp                                   0                       # Number of swp insts executed (Count)
system.cpu.numNop                                   0                       # Number of nop insts executed (Count)
system.cpu.numRefs                           61076324                       # Number of memory reference insts executed (Count)
system.cpu.numBranches                        5091326                       # Number of branches executed (Count)
system.cpu.numStoreInsts                      8625244                       # Number of stores executed (Count)
system.cpu.numRate                           2.002062                       # Inst execution rate ((Count/Cycle))
system.cpu.timesIdled                            1113                       # Number of times that the entire CPU went into an idle state and unscheduled itself (Count)
system.cpu.idleCycles                           62048                       # Total number of cycles that the CPU has spent unscheduled due to idling (Cycle)
system.cpu.committedInsts                    50000004                       # Number of Instructions Simulated (Count)
system.cpu.committedOps                      65070783                       # Number of Ops (including micro ops) Simulated (Count)
system.cpu.cpi                               1.486505                       # CPI: Cycles Per Instruction ((Cycle/Count))
system.cpu.totalCpi                          1.486505                       # CPI: Total CPI of All Threads ((Cycle/Count))
system.cpu.ipc                               0.672719                       # IPC: Instructions Per Cycle ((Count/Cycle))
system.cpu.totalIpc                          0.672719                       # IPC: Total IPC of All Threads ((Count/Cycle))
system.cpu.intRegfileReads                  174120588                       # Number of integer regfile reads (Count)
system.cpu.intRegfileWrites                 127272163                       # Number of integer regfile writes (Count)
system.cpu.fpRegfileReads                     3362534                       # Number of floating regfile reads (Count)
system.cpu.fpRegfileWrites                    3475240                       # Number of floating regfile writes (Count)
system.cpu.ccRegfileReads                    25428724                       # number of cc regfile reads (Count)
system.cpu.ccRegfileWrites                   42584006                       # number of cc regfile writes (Count)
system.cpu.miscRegfileReads                  74893545                       # number of misc regfile reads (Count)
system.cpu.MemDepUnit__0.insertedLoads       66841167                       # Number of loads inserted to the mem dependence unit. (Count)
system.cpu.MemDepUnit__0.insertedStores      16777359                       # Number of stores inserted to the mem dependence unit. (Count)
system.cpu.MemDepUnit__0.conflictingLoads     14984878                       # Number of conflicting loads. (Count)
system.cpu.MemDepUnit__0.conflictingStores      1553456                       # Number of conflicting stores. (Count)
system.cpu.MemDepUnit__1.insertedLoads              0                       # Number of loads inserted to the mem dependence unit. (Count)
system.cpu.MemDepUnit__1.insertedStores             0                       # Number of stores inserted to the mem dependence unit. (Count)
system.cpu.MemDepUnit__1.conflictingLoads            0                       # Number of conflicting loads. (Count)
system.cpu.MemDepUnit__1.conflictingStores            0                       # Number of conflicting stores. (Count)
system.cpu.MemDepUnit__2.insertedLoads              0                       # Number of loads inserted to the mem dependence unit. (Count)
system.cpu.MemDepUnit__2.insertedStores             0                       # Number of stores inserted to the mem dependence unit. (Count)
system.cpu.MemDepUnit__2.conflictingLoads            0                       # Number of conflicting loads. (Count)
system.cpu.MemDepUnit__2.conflictingStores            0                       # Number of conflicting stores. (Count)
system.cpu.MemDepUnit__3.insertedLoads              0                       # Number of loads inserted to the mem dependence unit. (Count)
system.cpu.MemDepUnit__3.insertedStores             0                       # Number of stores inserted to the mem dependence unit. (Count)
system.cpu.MemDepUnit__3.conflictingLoads            0                       # Number of conflicting loads. (Count)
system.cpu.MemDepUnit__3.conflictingStores            0                       # Number of conflicting stores. (Count)
system.cpu.branchPred.lookups                10199006                       # Number of BP lookups (Count)
system.cpu.branchPred.condPredicted           7933289                       # Number of conditional branches predicted (Count)
system.cpu.branchPred.condIncorrect           2180959                       # Number of conditional branches incorrect (Count)
system.cpu.branchPred.BTBLookups              1734219                       # Number of BTB lookups (Count)
system.cpu.branchPred.BTBHits                 1714292                       # Number of BTB hits (Count)
system.cpu.branchPred.BTBHitRatio            0.988510                       # BTB Hit Ratio (Ratio)
system.cpu.branchPred.RASUsed                  510754                       # Number of times the RAS was used to get a target. (Count)
system.cpu.branchPred.RASIncorrect                  5                       # Number of incorrect RAS predictions. (Count)
system.cpu.branchPred.indirectLookups           20744                       # Number of indirect predictor lookups. (Count)
system.cpu.branchPred.indirectHits              18092                       # Number of indirect target hits. (Count)
system.cpu.branchPred.indirectMisses             2652                       # Number of indirect misses. (Count)
system.cpu.branchPred.indirectMispredicted          207                       # Number of mispredicted indirect branches. (Count)
system.cpu.commit.commitSquashedInsts       141840018                       # The number of squashed insts skipped by commit (Count)
system.cpu.commit.commitNonSpecStalls             330                       # The number of times commit has been forced to stall to communicate backwards (Count)
system.cpu.commit.branchMispredicts           2177901                       # The number of times a branch was mispredicted (Count)
system.cpu.commit.numCommittedDist::samples     54717043                       # Number of insts commited each cycle (Count)
system.cpu.commit.numCommittedDist::mean     1.189223                       # Number of insts commited each cycle (Count)
system.cpu.commit.numCommittedDist::stdev     1.884266                       # Number of insts commited each cycle (Count)
system.cpu.commit.numCommittedDist::underflows            0      0.00%      0.00% # Number of insts commited each cycle (Count)
system.cpu.commit.numCommittedDist::0        28257856     51.64%     51.64% # Number of insts commited each cycle (Count)
system.cpu.commit.numCommittedDist::1        13685038     25.01%     76.65% # Number of insts commited each cycle (Count)
system.cpu.commit.numCommittedDist::2         4487278      8.20%     84.86% # Number of insts commited each cycle (Count)
system.cpu.commit.numCommittedDist::3         1564961      2.86%     87.72% # Number of insts commited each cycle (Count)
system.cpu.commit.numCommittedDist::4         2331741      4.26%     91.98% # Number of insts commited each cycle (Count)
system.cpu.commit.numCommittedDist::5         1013419      1.85%     93.83% # Number of insts commited each cycle (Count)
system.cpu.commit.numCommittedDist::6         1278168      2.34%     96.16% # Number of insts commited each cycle (Count)
system.cpu.commit.numCommittedDist::7         1135417      2.08%     98.24% # Number of insts commited each cycle (Count)
system.cpu.commit.numCommittedDist::8          963165      1.76%    100.00% # Number of insts commited each cycle (Count)
system.cpu.commit.numCommittedDist::overflows            0      0.00%    100.00% # Number of insts commited each cycle (Count)
system.cpu.commit.numCommittedDist::min_value            0                       # Number of insts commited each cycle (Count)
system.cpu.commit.numCommittedDist::max_value            8                       # Number of insts commited each cycle (Count)
system.cpu.commit.numCommittedDist::total     54717043                       # Number of insts commited each cycle (Count)
system.cpu.commit.instsCommitted             50000004                       # Number of instructions committed (Count)
system.cpu.commit.opsCommitted               65070783                       # Number of ops (including micro ops) committed (Count)
system.cpu.commit.memRefs                    25501597                       # Number of memory references committed (Count)
system.cpu.commit.loads                      21862333                       # Number of loads committed (Count)
system.cpu.commit.amos                              0                       # Number of atomic instructions committed (Count)
system.cpu.commit.membars                         220                       # Number of memory barriers committed (Count)
system.cpu.commit.branches                    2860070                       # Number of branches committed (Count)
system.cpu.commit.vectorInstructions                0                       # Number of committed Vector instructions. (Count)
system.cpu.commit.floating                    3002095                       # Number of committed floating point instructions. (Count)
system.cpu.commit.integer                    62936733                       # Number of committed integer instructions. (Count)
system.cpu.commit.functionCalls                 82469                       # Number of function calls committed. (Count)
system.cpu.commit.committedInstType_0::No_OpClass        16301      0.03%      0.03% # Class of committed instruction (Count)
system.cpu.commit.committedInstType_0::IntAlu     36916456     56.73%     56.76% # Class of committed instruction (Count)
system.cpu.commit.committedInstType_0::IntMult        70750      0.11%     56.87% # Class of committed instruction (Count)
system.cpu.commit.committedInstType_0::IntDiv       629696      0.97%     57.83% # Class of committed instruction (Count)
system.cpu.commit.committedInstType_0::FloatAdd      1010332      1.55%     59.39% # Class of committed instruction (Count)
system.cpu.commit.committedInstType_0::FloatCmp            0      0.00%     59.39% # Class of committed instruction (Count)
system.cpu.commit.committedInstType_0::FloatCvt            0      0.00%     59.39% # Class of committed instruction (Count)
system.cpu.commit.committedInstType_0::FloatMult            0      0.00%     59.39% # Class of committed instruction (Count)
system.cpu.commit.committedInstType_0::FloatMultAcc            0      0.00%     59.39% # Class of committed instruction (Count)
system.cpu.commit.committedInstType_0::FloatDiv            0      0.00%     59.39% # Class of committed instruction (Count)
system.cpu.commit.committedInstType_0::FloatMisc            0      0.00%     59.39% # Class of committed instruction (Count)
system.cpu.commit.committedInstType_0::FloatSqrt            0      0.00%     59.39% # Class of committed instruction (Count)
system.cpu.commit.committedInstType_0::SimdAdd          450      0.00%     59.39% # Class of committed instruction (Count)
system.cpu.commit.committedInstType_0::SimdAddAcc            0      0.00%     59.39% # Class of committed instruction (Count)
system.cpu.commit.committedInstType_0::SimdAlu        88594      0.14%     59.52% # Class of committed instruction (Count)
system.cpu.commit.committedInstType_0::SimdCmp          204      0.00%     59.52% # Class of committed instruction (Count)
system.cpu.commit.committedInstType_0::SimdCvt        91788      0.14%     59.67% # Class of committed instruction (Count)
system.cpu.commit.committedInstType_0::SimdMisc       206377      0.32%     59.98% # Class of committed instruction (Count)
system.cpu.commit.committedInstType_0::SimdMult            0      0.00%     59.98% # Class of committed instruction (Count)
system.cpu.commit.committedInstType_0::SimdMultAcc            0      0.00%     59.98% # Class of committed instruction (Count)
system.cpu.commit.committedInstType_0::SimdShift          110      0.00%     59.98% # Class of committed instruction (Count)
system.cpu.commit.committedInstType_0::SimdShiftAcc            0      0.00%     59.98% # Class of committed instruction (Count)
system.cpu.commit.committedInstType_0::SimdDiv            0      0.00%     59.98% # Class of committed instruction (Count)
system.cpu.commit.committedInstType_0::SimdSqrt            0      0.00%     59.98% # Class of committed instruction (Count)
system.cpu.commit.committedInstType_0::SimdFloatAdd       185070      0.28%     60.27% # Class of committed instruction (Count)
system.cpu.commit.committedInstType_0::SimdFloatAlu            0      0.00%     60.27% # Class of committed instruction (Count)
system.cpu.commit.committedInstType_0::SimdFloatCmp            0      0.00%     60.27% # Class of committed instruction (Count)
system.cpu.commit.committedInstType_0::SimdFloatCvt       283363      0.44%     60.70% # Class of committed instruction (Count)
system.cpu.commit.committedInstType_0::SimdFloatDiv        32916      0.05%     60.75% # Class of committed instruction (Count)
system.cpu.commit.committedInstType_0::SimdFloatMisc            0      0.00%     60.75% # Class of committed instruction (Count)
system.cpu.commit.committedInstType_0::SimdFloatMult        36779      0.06%     60.81% # Class of committed instruction (Count)
system.cpu.commit.committedInstType_0::SimdFloatMultAcc            0      0.00%     60.81% # Class of committed instruction (Count)
system.cpu.commit.committedInstType_0::SimdFloatSqrt            0      0.00%     60.81% # Class of committed instruction (Count)
system.cpu.commit.committedInstType_0::SimdReduceAdd            0      0.00%     60.81% # Class of committed instruction (Count)
system.cpu.commit.committedInstType_0::SimdReduceAlu            0      0.00%     60.81% # Class of committed instruction (Count)
system.cpu.commit.committedInstType_0::SimdReduceCmp            0      0.00%     60.81% # Class of committed instruction (Count)
system.cpu.commit.committedInstType_0::SimdFloatReduceAdd            0      0.00%     60.81% # Class of committed instruction (Count)
system.cpu.commit.committedInstType_0::SimdFloatReduceCmp            0      0.00%     60.81% # Class of committed instruction (Count)
system.cpu.commit.committedInstType_0::SimdAes            0      0.00%     60.81% # Class of committed instruction (Count)
system.cpu.commit.committedInstType_0::SimdAesMix            0      0.00%     60.81% # Class of committed instruction (Count)
system.cpu.commit.committedInstType_0::SimdSha1Hash            0      0.00%     60.81% # Class of committed instruction (Count)
system.cpu.commit.committedInstType_0::SimdSha1Hash2            0      0.00%     60.81% # Class of committed instruction (Count)
system.cpu.commit.committedInstType_0::SimdSha256Hash            0      0.00%     60.81% # Class of committed instruction (Count)
system.cpu.commit.committedInstType_0::SimdSha256Hash2            0      0.00%     60.81% # Class of committed instruction (Count)
system.cpu.commit.committedInstType_0::SimdShaSigma2            0      0.00%     60.81% # Class of committed instruction (Count)
system.cpu.commit.committedInstType_0::SimdShaSigma3            0      0.00%     60.81% # Class of committed instruction (Count)
system.cpu.commit.committedInstType_0::SimdPredAlu            0      0.00%     60.81% # Class of committed instruction (Count)
system.cpu.commit.committedInstType_0::MemRead     21103150     32.43%     93.24% # Class of committed instruction (Count)
system.cpu.commit.committedInstType_0::MemWrite      3445328      5.29%     98.54% # Class of committed instruction (Count)
system.cpu.commit.committedInstType_0::FloatMemRead       759183      1.17%     99.70% # Class of committed instruction (Count)
system.cpu.commit.committedInstType_0::FloatMemWrite       193936      0.30%    100.00% # Class of committed instruction (Count)
system.cpu.commit.committedInstType_0::IprAccess            0      0.00%    100.00% # Class of committed instruction (Count)
system.cpu.commit.committedInstType_0::InstPrefetch            0      0.00%    100.00% # Class of committed instruction (Count)
system.cpu.commit.committedInstType_0::total     65070783                       # Class of committed instruction (Count)
system.cpu.commit.commitEligibleSamples        963165                       # number cycles where commit BW limit reached (Cycle)
system.cpu.dcache.demandHits::cpu.data       50794727                       # number of demand (read+write) hits (Count)
system.cpu.dcache.demandHits::total          50794727                       # number of demand (read+write) hits (Count)
system.cpu.dcache.overallHits::cpu.data      50794753                       # number of overall hits (Count)
system.cpu.dcache.overallHits::total         50794753                       # number of overall hits (Count)
system.cpu.dcache.demandMisses::cpu.data        92631                       # number of demand (read+write) misses (Count)
system.cpu.dcache.demandMisses::total           92631                       # number of demand (read+write) misses (Count)
system.cpu.dcache.overallMisses::cpu.data        95536                       # number of overall misses (Count)
system.cpu.dcache.overallMisses::total          95536                       # number of overall misses (Count)
system.cpu.dcache.demandMissLatency::cpu.data   2628517988                       # number of demand (read+write) miss ticks (Tick)
system.cpu.dcache.demandMissLatency::total   2628517988                       # number of demand (read+write) miss ticks (Tick)
system.cpu.dcache.overallMissLatency::cpu.data   2628517988                       # number of overall miss ticks (Tick)
system.cpu.dcache.overallMissLatency::total   2628517988                       # number of overall miss ticks (Tick)
system.cpu.dcache.demandAccesses::cpu.data     50887358                       # number of demand (read+write) accesses (Count)
system.cpu.dcache.demandAccesses::total      50887358                       # number of demand (read+write) accesses (Count)
system.cpu.dcache.overallAccesses::cpu.data     50890289                       # number of overall (read+write) accesses (Count)
system.cpu.dcache.overallAccesses::total     50890289                       # number of overall (read+write) accesses (Count)
system.cpu.dcache.demandMissRate::cpu.data     0.001820                       # miss rate for demand accesses (Ratio)
system.cpu.dcache.demandMissRate::total      0.001820                       # miss rate for demand accesses (Ratio)
system.cpu.dcache.overallMissRate::cpu.data     0.001877                       # miss rate for overall accesses (Ratio)
system.cpu.dcache.overallMissRate::total     0.001877                       # miss rate for overall accesses (Ratio)
system.cpu.dcache.demandAvgMissLatency::cpu.data 28376.223813                       # average overall miss latency in ticks ((Tick/Count))
system.cpu.dcache.demandAvgMissLatency::total 28376.223813                       # average overall miss latency in ticks ((Tick/Count))
system.cpu.dcache.overallAvgMissLatency::cpu.data 27513.377031                       # average overall miss latency ((Tick/Count))
system.cpu.dcache.overallAvgMissLatency::total 27513.377031                       # average overall miss latency ((Tick/Count))
system.cpu.dcache.blockedCycles::no_mshrs        17094                       # number of cycles access was blocked (Cycle)
system.cpu.dcache.blockedCycles::no_targets          409                       # number of cycles access was blocked (Cycle)
system.cpu.dcache.blockedCauses::no_mshrs         1150                       # number of times access was blocked (Count)
system.cpu.dcache.blockedCauses::no_targets            5                       # number of times access was blocked (Count)
system.cpu.dcache.avgBlocked::no_mshrs      14.864348                       # average number of cycles each access was blocked ((Cycle/Count))
system.cpu.dcache.avgBlocked::no_targets    81.800000                       # average number of cycles each access was blocked ((Cycle/Count))
system.cpu.dcache.writebacks::writebacks        59608                       # number of writebacks (Count)
system.cpu.dcache.writebacks::total             59608                       # number of writebacks (Count)
system.cpu.dcache.demandMshrHits::cpu.data        33782                       # number of demand (read+write) MSHR hits (Count)
system.cpu.dcache.demandMshrHits::total         33782                       # number of demand (read+write) MSHR hits (Count)
system.cpu.dcache.overallMshrHits::cpu.data        33782                       # number of overall MSHR hits (Count)
system.cpu.dcache.overallMshrHits::total        33782                       # number of overall MSHR hits (Count)
system.cpu.dcache.demandMshrMisses::cpu.data        58849                       # number of demand (read+write) MSHR misses (Count)
system.cpu.dcache.demandMshrMisses::total        58849                       # number of demand (read+write) MSHR misses (Count)
system.cpu.dcache.overallMshrMisses::cpu.data        61753                       # number of overall MSHR misses (Count)
system.cpu.dcache.overallMshrMisses::total        61753                       # number of overall MSHR misses (Count)
system.cpu.dcache.demandMshrMissLatency::cpu.data   1692645988                       # number of demand (read+write) MSHR miss ticks (Tick)
system.cpu.dcache.demandMshrMissLatency::total   1692645988                       # number of demand (read+write) MSHR miss ticks (Tick)
system.cpu.dcache.overallMshrMissLatency::cpu.data   1789050988                       # number of overall MSHR miss ticks (Tick)
system.cpu.dcache.overallMshrMissLatency::total   1789050988                       # number of overall MSHR miss ticks (Tick)
system.cpu.dcache.demandMshrMissRate::cpu.data     0.001156                       # mshr miss ratio for demand accesses (Ratio)
system.cpu.dcache.demandMshrMissRate::total     0.001156                       # mshr miss ratio for demand accesses (Ratio)
system.cpu.dcache.overallMshrMissRate::cpu.data     0.001213                       # mshr miss ratio for overall accesses (Ratio)
system.cpu.dcache.overallMshrMissRate::total     0.001213                       # mshr miss ratio for overall accesses (Ratio)
system.cpu.dcache.demandAvgMshrMissLatency::cpu.data 28762.527622                       # average overall mshr miss latency ((Tick/Count))
system.cpu.dcache.demandAvgMshrMissLatency::total 28762.527622                       # average overall mshr miss latency ((Tick/Count))
system.cpu.dcache.overallAvgMshrMissLatency::cpu.data 28971.078134                       # average overall mshr miss latency ((Tick/Count))
system.cpu.dcache.overallAvgMshrMissLatency::total 28971.078134                       # average overall mshr miss latency ((Tick/Count))
system.cpu.dcache.replacements                  61241                       # number of replacements (Count)
system.cpu.dcache.LockedRMWReadReq.hits::cpu.data          110                       # number of LockedRMWReadReq hits (Count)
system.cpu.dcache.LockedRMWReadReq.hits::total          110                       # number of LockedRMWReadReq hits (Count)
system.cpu.dcache.LockedRMWReadReq.accesses::cpu.data          110                       # number of LockedRMWReadReq accesses(hits+misses) (Count)
system.cpu.dcache.LockedRMWReadReq.accesses::total          110                       # number of LockedRMWReadReq accesses(hits+misses) (Count)
system.cpu.dcache.LockedRMWReadReq.mshrMissLatency::cpu.data       771000                       # number of LockedRMWReadReq MSHR miss ticks (Tick)
system.cpu.dcache.LockedRMWReadReq.mshrMissLatency::total       771000                       # number of LockedRMWReadReq MSHR miss ticks (Tick)
system.cpu.dcache.LockedRMWReadReq.avgMshrMissLatency::cpu.data          inf                       # average LockedRMWReadReq mshr miss latency ((Tick/Count))
system.cpu.dcache.LockedRMWReadReq.avgMshrMissLatency::total          inf                       # average LockedRMWReadReq mshr miss latency ((Tick/Count))
system.cpu.dcache.LockedRMWWriteReq.hits::cpu.data          110                       # number of LockedRMWWriteReq hits (Count)
system.cpu.dcache.LockedRMWWriteReq.hits::total          110                       # number of LockedRMWWriteReq hits (Count)
system.cpu.dcache.LockedRMWWriteReq.accesses::cpu.data          110                       # number of LockedRMWWriteReq accesses(hits+misses) (Count)
system.cpu.dcache.LockedRMWWriteReq.accesses::total          110                       # number of LockedRMWWriteReq accesses(hits+misses) (Count)
system.cpu.dcache.ReadReq.hits::cpu.data     47198572                       # number of ReadReq hits (Count)
system.cpu.dcache.ReadReq.hits::total        47198572                       # number of ReadReq hits (Count)
system.cpu.dcache.ReadReq.misses::cpu.data        49569                       # number of ReadReq misses (Count)
system.cpu.dcache.ReadReq.misses::total         49569                       # number of ReadReq misses (Count)
system.cpu.dcache.ReadReq.missLatency::cpu.data   1286147000                       # number of ReadReq miss ticks (Tick)
system.cpu.dcache.ReadReq.missLatency::total   1286147000                       # number of ReadReq miss ticks (Tick)
system.cpu.dcache.ReadReq.accesses::cpu.data     47248141                       # number of ReadReq accesses(hits+misses) (Count)
system.cpu.dcache.ReadReq.accesses::total     47248141                       # number of ReadReq accesses(hits+misses) (Count)
system.cpu.dcache.ReadReq.missRate::cpu.data     0.001049                       # miss rate for ReadReq accesses (Ratio)
system.cpu.dcache.ReadReq.missRate::total     0.001049                       # miss rate for ReadReq accesses (Ratio)
system.cpu.dcache.ReadReq.avgMissLatency::cpu.data 25946.599689                       # average ReadReq miss latency ((Tick/Count))
system.cpu.dcache.ReadReq.avgMissLatency::total 25946.599689                       # average ReadReq miss latency ((Tick/Count))
system.cpu.dcache.ReadReq.mshrHits::cpu.data        33691                       # number of ReadReq MSHR hits (Count)
system.cpu.dcache.ReadReq.mshrHits::total        33691                       # number of ReadReq MSHR hits (Count)
system.cpu.dcache.ReadReq.mshrMisses::cpu.data        15878                       # number of ReadReq MSHR misses (Count)
system.cpu.dcache.ReadReq.mshrMisses::total        15878                       # number of ReadReq MSHR misses (Count)
system.cpu.dcache.ReadReq.mshrMissLatency::cpu.data    438868000                       # number of ReadReq MSHR miss ticks (Tick)
system.cpu.dcache.ReadReq.mshrMissLatency::total    438868000                       # number of ReadReq MSHR miss ticks (Tick)
system.cpu.dcache.ReadReq.mshrMissRate::cpu.data     0.000336                       # mshr miss rate for ReadReq accesses (Ratio)
system.cpu.dcache.ReadReq.mshrMissRate::total     0.000336                       # mshr miss rate for ReadReq accesses (Ratio)
system.cpu.dcache.ReadReq.avgMshrMissLatency::cpu.data 27640.005038                       # average ReadReq mshr miss latency ((Tick/Count))
system.cpu.dcache.ReadReq.avgMshrMissLatency::total 27640.005038                       # average ReadReq mshr miss latency ((Tick/Count))
system.cpu.dcache.SoftPFReq.hits::cpu.data           26                       # number of SoftPFReq hits (Count)
system.cpu.dcache.SoftPFReq.hits::total            26                       # number of SoftPFReq hits (Count)
system.cpu.dcache.SoftPFReq.misses::cpu.data         2905                       # number of SoftPFReq misses (Count)
system.cpu.dcache.SoftPFReq.misses::total         2905                       # number of SoftPFReq misses (Count)
system.cpu.dcache.SoftPFReq.accesses::cpu.data         2931                       # number of SoftPFReq accesses(hits+misses) (Count)
system.cpu.dcache.SoftPFReq.accesses::total         2931                       # number of SoftPFReq accesses(hits+misses) (Count)
system.cpu.dcache.SoftPFReq.missRate::cpu.data     0.991129                       # miss rate for SoftPFReq accesses (Ratio)
system.cpu.dcache.SoftPFReq.missRate::total     0.991129                       # miss rate for SoftPFReq accesses (Ratio)
system.cpu.dcache.SoftPFReq.mshrMisses::cpu.data         2904                       # number of SoftPFReq MSHR misses (Count)
system.cpu.dcache.SoftPFReq.mshrMisses::total         2904                       # number of SoftPFReq MSHR misses (Count)
system.cpu.dcache.SoftPFReq.mshrMissLatency::cpu.data     96405000                       # number of SoftPFReq MSHR miss ticks (Tick)
system.cpu.dcache.SoftPFReq.mshrMissLatency::total     96405000                       # number of SoftPFReq MSHR miss ticks (Tick)
system.cpu.dcache.SoftPFReq.mshrMissRate::cpu.data     0.990788                       # mshr miss rate for SoftPFReq accesses (Ratio)
system.cpu.dcache.SoftPFReq.mshrMissRate::total     0.990788                       # mshr miss rate for SoftPFReq accesses (Ratio)
system.cpu.dcache.SoftPFReq.avgMshrMissLatency::cpu.data 33197.314050                       # average SoftPFReq mshr miss latency ((Tick/Count))
system.cpu.dcache.SoftPFReq.avgMshrMissLatency::total 33197.314050                       # average SoftPFReq mshr miss latency ((Tick/Count))
system.cpu.dcache.WriteReq.hits::cpu.data      3596155                       # number of WriteReq hits (Count)
system.cpu.dcache.WriteReq.hits::total        3596155                       # number of WriteReq hits (Count)
system.cpu.dcache.WriteReq.misses::cpu.data        43062                       # number of WriteReq misses (Count)
system.cpu.dcache.WriteReq.misses::total        43062                       # number of WriteReq misses (Count)
system.cpu.dcache.WriteReq.missLatency::cpu.data   1342370988                       # number of WriteReq miss ticks (Tick)
system.cpu.dcache.WriteReq.missLatency::total   1342370988                       # number of WriteReq miss ticks (Tick)
system.cpu.dcache.WriteReq.accesses::cpu.data      3639217                       # number of WriteReq accesses(hits+misses) (Count)
system.cpu.dcache.WriteReq.accesses::total      3639217                       # number of WriteReq accesses(hits+misses) (Count)
system.cpu.dcache.WriteReq.missRate::cpu.data     0.011833                       # miss rate for WriteReq accesses (Ratio)
system.cpu.dcache.WriteReq.missRate::total     0.011833                       # miss rate for WriteReq accesses (Ratio)
system.cpu.dcache.WriteReq.avgMissLatency::cpu.data 31172.982862                       # average WriteReq miss latency ((Tick/Count))
system.cpu.dcache.WriteReq.avgMissLatency::total 31172.982862                       # average WriteReq miss latency ((Tick/Count))
system.cpu.dcache.WriteReq.mshrHits::cpu.data           91                       # number of WriteReq MSHR hits (Count)
system.cpu.dcache.WriteReq.mshrHits::total           91                       # number of WriteReq MSHR hits (Count)
system.cpu.dcache.WriteReq.mshrMisses::cpu.data        42971                       # number of WriteReq MSHR misses (Count)
system.cpu.dcache.WriteReq.mshrMisses::total        42971                       # number of WriteReq MSHR misses (Count)
system.cpu.dcache.WriteReq.mshrMissLatency::cpu.data   1253777988                       # number of WriteReq MSHR miss ticks (Tick)
system.cpu.dcache.WriteReq.mshrMissLatency::total   1253777988                       # number of WriteReq MSHR miss ticks (Tick)
system.cpu.dcache.WriteReq.mshrMissRate::cpu.data     0.011808                       # mshr miss rate for WriteReq accesses (Ratio)
system.cpu.dcache.WriteReq.mshrMissRate::total     0.011808                       # mshr miss rate for WriteReq accesses (Ratio)
system.cpu.dcache.WriteReq.avgMshrMissLatency::cpu.data 29177.305345                       # average WriteReq mshr miss latency ((Tick/Count))
system.cpu.dcache.WriteReq.avgMshrMissLatency::total 29177.305345                       # average WriteReq mshr miss latency ((Tick/Count))
system.cpu.dcache.power_state.pwrStateResidencyTicks::UNDEFINED  74325261000                       # Cumulative time (in ticks) in various power states (Tick)
system.cpu.dcache.tags.tagsInUse           510.991400                       # Average ticks per tags in use ((Tick/Count))
system.cpu.dcache.tags.totalRefs             50856726                       # Total number of references to valid blocks. (Count)
system.cpu.dcache.tags.sampledRefs              61753                       # Sample count of references to valid blocks. (Count)
system.cpu.dcache.tags.avgRefs             823.550694                       # Average number of references to valid blocks. ((Count/Count))
system.cpu.dcache.tags.warmupTick              222000                       # The tick when the warmup percentage was hit. (Tick)
system.cpu.dcache.tags.occupancies::cpu.data   510.991400                       # Average occupied blocks per tick, per requestor ((Count/Tick))
system.cpu.dcache.tags.avgOccs::cpu.data     0.998030                       # Average percentage of cache occupancy ((Ratio/Tick))
system.cpu.dcache.tags.avgOccs::total        0.998030                       # Average percentage of cache occupancy ((Ratio/Tick))
system.cpu.dcache.tags.occupanciesTaskId::1024          512                       # Occupied blocks per task id (Count)
system.cpu.dcache.tags.ageTaskId_1024::0           11                       # Occupied blocks per task id, per block age (Count)
system.cpu.dcache.tags.ageTaskId_1024::1           46                       # Occupied blocks per task id, per block age (Count)
system.cpu.dcache.tags.ageTaskId_1024::2          138                       # Occupied blocks per task id, per block age (Count)
system.cpu.dcache.tags.ageTaskId_1024::3          317                       # Occupied blocks per task id, per block age (Count)
system.cpu.dcache.tags.ratioOccsTaskId::1024            1                       # Ratio of occupied blocks and all blocks, per task id (Ratio)
system.cpu.dcache.tags.tagAccesses          203623789                       # Number of tag accesses (Count)
system.cpu.dcache.tags.dataAccesses         203623789                       # Number of data accesses (Count)
system.cpu.dcache.tags.power_state.pwrStateResidencyTicks::UNDEFINED  74325261000                       # Cumulative time (in ticks) in various power states (Tick)
system.cpu.decode.idleCycles                 12319218                       # Number of cycles decode is idle (Cycle)
system.cpu.decode.blockedCycles              27690113                       # Number of cycles decode is blocked (Cycle)
system.cpu.decode.runCycles                  27208143                       # Number of cycles decode is running (Cycle)
system.cpu.decode.unblockCycles               4859574                       # Number of cycles decode is unblocking (Cycle)
system.cpu.decode.squashCycles                2186166                       # Number of cycles decode is squashing (Cycle)
system.cpu.decode.branchResolved              1464986                       # Number of times decode resolved a branch (Count)
system.cpu.decode.branchMispred                 17648                       # Number of times decode detected a branch misprediction (Count)
system.cpu.decode.decodedInsts              230930612                       # Number of instructions handled by decode (Count)
system.cpu.decode.squashedInsts                 20090                       # Number of squashed instructions handled by decode (Count)
system.cpu.fetch.icacheStallCycles           19923197                       # Number of cycles fetch is stalled on an Icache miss (Cycle)
system.cpu.fetch.insts                      204113714                       # Number of instructions fetch has processed (Count)
system.cpu.fetch.branches                    10199006                       # Number of branches that fetch encountered (Count)
system.cpu.fetch.predictedBranches            2243138                       # Number of branches that fetch has predicted taken (Count)
system.cpu.fetch.cycles                      52149587                       # Number of cycles fetch has run and was not squashing or blocked (Cycle)
system.cpu.fetch.squashCycles                 4378614                       # Number of cycles fetch has spent squashing (Cycle)
system.cpu.fetch.tlbCycles                          6                       # Number of cycles fetch has spent waiting for tlb (Cycle)
system.cpu.fetch.miscStallCycles                   92                       # Number of cycles fetch has spent waiting on interrupts, or bad addresses, or out of MSHRs (Cycle)
system.cpu.fetch.pendingTrapStallCycles           962                       # Number of stall cycles due to pending traps (Cycle)
system.cpu.fetch.icacheWaitRetryStallCycles           63                       # Number of stall cycles due to full MSHR (Cycle)
system.cpu.fetch.cacheLines                  18051819                       # Number of cache lines fetched (Count)
system.cpu.fetch.icacheSquashes                210543                       # Number of outstanding Icache misses that were squashed (Count)
system.cpu.fetch.nisnDist::samples           74263214                       # Number of instructions fetched each cycle (Total) (Count)
system.cpu.fetch.nisnDist::mean              3.613385                       # Number of instructions fetched each cycle (Total) (Count)
system.cpu.fetch.nisnDist::stdev             3.651645                       # Number of instructions fetched each cycle (Total) (Count)
system.cpu.fetch.nisnDist::underflows               0      0.00%      0.00% # Number of instructions fetched each cycle (Total) (Count)
system.cpu.fetch.nisnDist::0                 32176001     43.33%     43.33% # Number of instructions fetched each cycle (Total) (Count)
system.cpu.fetch.nisnDist::1                  1657054      2.23%     45.56% # Number of instructions fetched each cycle (Total) (Count)
system.cpu.fetch.nisnDist::2                  4449574      5.99%     51.55% # Number of instructions fetched each cycle (Total) (Count)
system.cpu.fetch.nisnDist::3                  2599023      3.50%     55.05% # Number of instructions fetched each cycle (Total) (Count)
system.cpu.fetch.nisnDist::4                  2123668      2.86%     57.91% # Number of instructions fetched each cycle (Total) (Count)
system.cpu.fetch.nisnDist::5                  1273165      1.71%     59.62% # Number of instructions fetched each cycle (Total) (Count)
system.cpu.fetch.nisnDist::6                  1729146      2.33%     61.95% # Number of instructions fetched each cycle (Total) (Count)
system.cpu.fetch.nisnDist::7                  1291741      1.74%     63.69% # Number of instructions fetched each cycle (Total) (Count)
system.cpu.fetch.nisnDist::8                 26963842     36.31%    100.00% # Number of instructions fetched each cycle (Total) (Count)
system.cpu.fetch.nisnDist::overflows                0      0.00%    100.00% # Number of instructions fetched each cycle (Total) (Count)
system.cpu.fetch.nisnDist::min_value                0                       # Number of instructions fetched each cycle (Total) (Count)
system.cpu.fetch.nisnDist::max_value                8                       # Number of instructions fetched each cycle (Total) (Count)
system.cpu.fetch.nisnDist::total             74263214                       # Number of instructions fetched each cycle (Total) (Count)
system.cpu.fetch.branchRate                  0.137221                       # Number of branch fetches per cycle (Ratio)
system.cpu.fetch.rate                        2.746223                       # Number of inst fetches per cycle ((Count/Cycle))
system.cpu.icache.demandHits::cpu.inst       18048303                       # number of demand (read+write) hits (Count)
system.cpu.icache.demandHits::total          18048303                       # number of demand (read+write) hits (Count)
system.cpu.icache.overallHits::cpu.inst      18048303                       # number of overall hits (Count)
system.cpu.icache.overallHits::total         18048303                       # number of overall hits (Count)
system.cpu.icache.demandMisses::cpu.inst         3516                       # number of demand (read+write) misses (Count)
system.cpu.icache.demandMisses::total            3516                       # number of demand (read+write) misses (Count)
system.cpu.icache.overallMisses::cpu.inst         3516                       # number of overall misses (Count)
system.cpu.icache.overallMisses::total           3516                       # number of overall misses (Count)
system.cpu.icache.demandMissLatency::cpu.inst    245090999                       # number of demand (read+write) miss ticks (Tick)
system.cpu.icache.demandMissLatency::total    245090999                       # number of demand (read+write) miss ticks (Tick)
system.cpu.icache.overallMissLatency::cpu.inst    245090999                       # number of overall miss ticks (Tick)
system.cpu.icache.overallMissLatency::total    245090999                       # number of overall miss ticks (Tick)
system.cpu.icache.demandAccesses::cpu.inst     18051819                       # number of demand (read+write) accesses (Count)
system.cpu.icache.demandAccesses::total      18051819                       # number of demand (read+write) accesses (Count)
system.cpu.icache.overallAccesses::cpu.inst     18051819                       # number of overall (read+write) accesses (Count)
system.cpu.icache.overallAccesses::total     18051819                       # number of overall (read+write) accesses (Count)
system.cpu.icache.demandMissRate::cpu.inst     0.000195                       # miss rate for demand accesses (Ratio)
system.cpu.icache.demandMissRate::total      0.000195                       # miss rate for demand accesses (Ratio)
system.cpu.icache.overallMissRate::cpu.inst     0.000195                       # miss rate for overall accesses (Ratio)
system.cpu.icache.overallMissRate::total     0.000195                       # miss rate for overall accesses (Ratio)
system.cpu.icache.demandAvgMissLatency::cpu.inst 69707.337600                       # average overall miss latency in ticks ((Tick/Count))
system.cpu.icache.demandAvgMissLatency::total 69707.337600                       # average overall miss latency in ticks ((Tick/Count))
system.cpu.icache.overallAvgMissLatency::cpu.inst 69707.337600                       # average overall miss latency ((Tick/Count))
system.cpu.icache.overallAvgMissLatency::total 69707.337600                       # average overall miss latency ((Tick/Count))
system.cpu.icache.blockedCycles::no_mshrs          439                       # number of cycles access was blocked (Cycle)
system.cpu.icache.blockedCycles::no_targets            0                       # number of cycles access was blocked (Cycle)
system.cpu.icache.blockedCauses::no_mshrs           14                       # number of times access was blocked (Count)
system.cpu.icache.blockedCauses::no_targets            0                       # number of times access was blocked (Count)
system.cpu.icache.avgBlocked::no_mshrs      31.357143                       # average number of cycles each access was blocked ((Cycle/Count))
system.cpu.icache.avgBlocked::no_targets          nan                       # average number of cycles each access was blocked ((Cycle/Count))
system.cpu.icache.demandMshrHits::cpu.inst          857                       # number of demand (read+write) MSHR hits (Count)
system.cpu.icache.demandMshrHits::total           857                       # number of demand (read+write) MSHR hits (Count)
system.cpu.icache.overallMshrHits::cpu.inst          857                       # number of overall MSHR hits (Count)
system.cpu.icache.overallMshrHits::total          857                       # number of overall MSHR hits (Count)
system.cpu.icache.demandMshrMisses::cpu.inst         2659                       # number of demand (read+write) MSHR misses (Count)
system.cpu.icache.demandMshrMisses::total         2659                       # number of demand (read+write) MSHR misses (Count)
system.cpu.icache.overallMshrMisses::cpu.inst         2659                       # number of overall MSHR misses (Count)
system.cpu.icache.overallMshrMisses::total         2659                       # number of overall MSHR misses (Count)
system.cpu.icache.demandMshrMissLatency::cpu.inst    185330999                       # number of demand (read+write) MSHR miss ticks (Tick)
system.cpu.icache.demandMshrMissLatency::total    185330999                       # number of demand (read+write) MSHR miss ticks (Tick)
system.cpu.icache.overallMshrMissLatency::cpu.inst    185330999                       # number of overall MSHR miss ticks (Tick)
system.cpu.icache.overallMshrMissLatency::total    185330999                       # number of overall MSHR miss ticks (Tick)
system.cpu.icache.demandMshrMissRate::cpu.inst     0.000147                       # mshr miss ratio for demand accesses (Ratio)
system.cpu.icache.demandMshrMissRate::total     0.000147                       # mshr miss ratio for demand accesses (Ratio)
system.cpu.icache.overallMshrMissRate::cpu.inst     0.000147                       # mshr miss ratio for overall accesses (Ratio)
system.cpu.icache.overallMshrMissRate::total     0.000147                       # mshr miss ratio for overall accesses (Ratio)
system.cpu.icache.demandAvgMshrMissLatency::cpu.inst 69699.510718                       # average overall mshr miss latency ((Tick/Count))
system.cpu.icache.demandAvgMshrMissLatency::total 69699.510718                       # average overall mshr miss latency ((Tick/Count))
system.cpu.icache.overallAvgMshrMissLatency::cpu.inst 69699.510718                       # average overall mshr miss latency ((Tick/Count))
system.cpu.icache.overallAvgMshrMissLatency::total 69699.510718                       # average overall mshr miss latency ((Tick/Count))
system.cpu.icache.replacements                   2147                       # number of replacements (Count)
system.cpu.icache.ReadReq.hits::cpu.inst     18048303                       # number of ReadReq hits (Count)
system.cpu.icache.ReadReq.hits::total        18048303                       # number of ReadReq hits (Count)
system.cpu.icache.ReadReq.misses::cpu.inst         3516                       # number of ReadReq misses (Count)
system.cpu.icache.ReadReq.misses::total          3516                       # number of ReadReq misses (Count)
system.cpu.icache.ReadReq.missLatency::cpu.inst    245090999                       # number of ReadReq miss ticks (Tick)
system.cpu.icache.ReadReq.missLatency::total    245090999                       # number of ReadReq miss ticks (Tick)
system.cpu.icache.ReadReq.accesses::cpu.inst     18051819                       # number of ReadReq accesses(hits+misses) (Count)
system.cpu.icache.ReadReq.accesses::total     18051819                       # number of ReadReq accesses(hits+misses) (Count)
system.cpu.icache.ReadReq.missRate::cpu.inst     0.000195                       # miss rate for ReadReq accesses (Ratio)
system.cpu.icache.ReadReq.missRate::total     0.000195                       # miss rate for ReadReq accesses (Ratio)
system.cpu.icache.ReadReq.avgMissLatency::cpu.inst 69707.337600                       # average ReadReq miss latency ((Tick/Count))
system.cpu.icache.ReadReq.avgMissLatency::total 69707.337600                       # average ReadReq miss latency ((Tick/Count))
system.cpu.icache.ReadReq.mshrHits::cpu.inst          857                       # number of ReadReq MSHR hits (Count)
system.cpu.icache.ReadReq.mshrHits::total          857                       # number of ReadReq MSHR hits (Count)
system.cpu.icache.ReadReq.mshrMisses::cpu.inst         2659                       # number of ReadReq MSHR misses (Count)
system.cpu.icache.ReadReq.mshrMisses::total         2659                       # number of ReadReq MSHR misses (Count)
system.cpu.icache.ReadReq.mshrMissLatency::cpu.inst    185330999                       # number of ReadReq MSHR miss ticks (Tick)
system.cpu.icache.ReadReq.mshrMissLatency::total    185330999                       # number of ReadReq MSHR miss ticks (Tick)
system.cpu.icache.ReadReq.mshrMissRate::cpu.inst     0.000147                       # mshr miss rate for ReadReq accesses (Ratio)
system.cpu.icache.ReadReq.mshrMissRate::total     0.000147                       # mshr miss rate for ReadReq accesses (Ratio)
system.cpu.icache.ReadReq.avgMshrMissLatency::cpu.inst 69699.510718                       # average ReadReq mshr miss latency ((Tick/Count))
system.cpu.icache.ReadReq.avgMshrMissLatency::total 69699.510718                       # average ReadReq mshr miss latency ((Tick/Count))
system.cpu.icache.power_state.pwrStateResidencyTicks::UNDEFINED  74325261000                       # Cumulative time (in ticks) in various power states (Tick)
system.cpu.icache.tags.tagsInUse           511.635231                       # Average ticks per tags in use ((Tick/Count))
system.cpu.icache.tags.totalRefs             18050962                       # Total number of references to valid blocks. (Count)
system.cpu.icache.tags.sampledRefs               2659                       # Sample count of references to valid blocks. (Count)
system.cpu.icache.tags.avgRefs            6788.628056                       # Average number of references to valid blocks. ((Count/Count))
system.cpu.icache.tags.warmupTick              107000                       # The tick when the warmup percentage was hit. (Tick)
system.cpu.icache.tags.occupancies::cpu.inst   511.635231                       # Average occupied blocks per tick, per requestor ((Count/Tick))
system.cpu.icache.tags.avgOccs::cpu.inst     0.999288                       # Average percentage of cache occupancy ((Ratio/Tick))
system.cpu.icache.tags.avgOccs::total        0.999288                       # Average percentage of cache occupancy ((Ratio/Tick))
system.cpu.icache.tags.occupanciesTaskId::1024          512                       # Occupied blocks per task id (Count)
system.cpu.icache.tags.ageTaskId_1024::2            4                       # Occupied blocks per task id, per block age (Count)
system.cpu.icache.tags.ageTaskId_1024::3           17                       # Occupied blocks per task id, per block age (Count)
system.cpu.icache.tags.ageTaskId_1024::4          491                       # Occupied blocks per task id, per block age (Count)
system.cpu.icache.tags.ratioOccsTaskId::1024            1                       # Ratio of occupied blocks and all blocks, per task id (Ratio)
system.cpu.icache.tags.tagAccesses           36106297                       # Number of tag accesses (Count)
system.cpu.icache.tags.dataAccesses          36106297                       # Number of data accesses (Count)
system.cpu.icache.tags.power_state.pwrStateResidencyTicks::UNDEFINED  74325261000                       # Cumulative time (in ticks) in various power states (Tick)
system.cpu.iew.idleCycles                           0                       # Number of cycles IEW is idle (Cycle)
system.cpu.iew.squashCycles                   2186166                       # Number of cycles IEW is squashing (Cycle)
system.cpu.iew.blockCycles                   17371789                       # Number of cycles IEW is blocking (Cycle)
system.cpu.iew.unblockCycles                    49748                       # Number of cycles IEW is unblocking (Cycle)
system.cpu.iew.dispatchedInsts              206910819                       # Number of instructions dispatched to IQ (Count)
system.cpu.iew.dispSquashedInsts               235059                       # Number of squashed instructions skipped by dispatch (Count)
system.cpu.iew.dispLoadInsts                 66841167                       # Number of dispatched load instructions (Count)
system.cpu.iew.dispStoreInsts                16777359                       # Number of dispatched store instructions (Count)
system.cpu.iew.dispNonSpecInsts                  2001                       # Number of dispatched non-speculative instructions (Count)
system.cpu.iew.iqFullEvents                       572                       # Number of times the IQ has become full, causing a stall (Count)
system.cpu.iew.lsqFullEvents                    49469                       # Number of times the LSQ has become full, causing a stall (Count)
system.cpu.iew.memOrderViolationEvents          18732                       # Number of memory order violations (Count)
system.cpu.iew.predictedTakenIncorrect             28                       # Number of branches that were predicted taken incorrectly (Count)
system.cpu.iew.predictedNotTakenIncorrect      2534673                       # Number of branches that were predicted not taken incorrectly (Count)
system.cpu.iew.branchMispredicts              2534701                       # Number of branch mispredicts detected at execute (Count)
system.cpu.iew.instsToCommit                146985366                       # Cumulative count of insts sent to commit (Count)
system.cpu.iew.writebackCount               145450031                       # Cumulative count of insts written-back (Count)
system.cpu.iew.producerInst                 125375611                       # Number of instructions producing a value (Count)
system.cpu.iew.consumerInst                 166261373                       # Number of instructions consuming a value (Count)
system.cpu.iew.wbRate                        1.956939                       # Insts written-back per cycle ((Count/Cycle))
system.cpu.iew.wbFanout                      0.754087                       # Average fanout of values written-back ((Count/Count))
system.cpu.interrupts.clk_domain.clock          16000                       # Clock period in ticks (Tick)
system.cpu.lsq0.forwLoads                     5344169                       # Number of loads that had data forwarded from stores (Count)
system.cpu.lsq0.squashedLoads                44978807                       # Number of loads squashed (Count)
system.cpu.lsq0.ignoredResponses                 8126                       # Number of memory responses ignored because the instruction is squashed (Count)
system.cpu.lsq0.memOrderViolation               18732                       # Number of memory ordering violations (Count)
system.cpu.lsq0.squashedStores               13138091                       # Number of stores squashed (Count)
system.cpu.lsq0.rescheduledLoads                 3508                       # Number of loads that were rescheduled (Count)
system.cpu.lsq0.blockedByCache                    881                       # Number of times an access to memory failed due to the cache being blocked (Count)
system.cpu.lsq0.loadToUse::samples           21859384                       # Distribution of cycle latency between the first time a load is issued and its completion (Unspecified)
system.cpu.lsq0.loadToUse::mean              3.246264                       # Distribution of cycle latency between the first time a load is issued and its completion (Unspecified)
system.cpu.lsq0.loadToUse::stdev             1.496403                       # Distribution of cycle latency between the first time a load is issued and its completion (Unspecified)
system.cpu.lsq0.loadToUse::0-9               21817988     99.81%     99.81% # Distribution of cycle latency between the first time a load is issued and its completion (Unspecified)
system.cpu.lsq0.loadToUse::10-19                 4124      0.02%     99.83% # Distribution of cycle latency between the first time a load is issued and its completion (Unspecified)
system.cpu.lsq0.loadToUse::20-29                34144      0.16%     99.99% # Distribution of cycle latency between the first time a load is issued and its completion (Unspecified)
system.cpu.lsq0.loadToUse::30-39                  753      0.00%     99.99% # Distribution of cycle latency between the first time a load is issued and its completion (Unspecified)
system.cpu.lsq0.loadToUse::40-49                   78      0.00%     99.99% # Distribution of cycle latency between the first time a load is issued and its completion (Unspecified)
system.cpu.lsq0.loadToUse::50-59                   87      0.00%     99.99% # Distribution of cycle latency between the first time a load is issued and its completion (Unspecified)
system.cpu.lsq0.loadToUse::60-69                   52      0.00%     99.99% # Distribution of cycle latency between the first time a load is issued and its completion (Unspecified)
system.cpu.lsq0.loadToUse::70-79                   40      0.00%     99.99% # Distribution of cycle latency between the first time a load is issued and its completion (Unspecified)
system.cpu.lsq0.loadToUse::80-89                   99      0.00%     99.99% # Distribution of cycle latency between the first time a load is issued and its completion (Unspecified)
system.cpu.lsq0.loadToUse::90-99                  954      0.00%    100.00% # Distribution of cycle latency between the first time a load is issued and its completion (Unspecified)
system.cpu.lsq0.loadToUse::100-109                544      0.00%    100.00% # Distribution of cycle latency between the first time a load is issued and its completion (Unspecified)
[...]
system.mem_ctrl.requestorReadAvgLat::cpu.inst     27132.50                       # Per-requestor read average memory access latency ((Tick/Count))
system.mem_ctrl.requestorReadAvgLat::cpu.data     27505.73                       # Per-requestor read average memory access latency ((Tick/Count))
system.mem_ctrl.dram.bytesRead::cpu.inst       100224                       # Number of bytes read from this memory (Byte)
system.mem_ctrl.dram.bytesRead::cpu.data       242944                       # Number of bytes read from this memory (Byte)
system.mem_ctrl.dram.bytesRead::total          343168                       # Number of bytes read from this memory (Byte)
system.mem_ctrl.dram.bytesInstRead::cpu.inst       100224                       # Number of instructions bytes read from this memory (Byte)
system.mem_ctrl.dram.bytesInstRead::total       100224                       # Number of instructions bytes read from this memory (Byte)
system.mem_ctrl.dram.numReads::cpu.inst          1566                       # Number of read requests responded to by this memory (Count)
system.mem_ctrl.dram.numReads::cpu.data          3796                       # Number of read requests responded to by this memory (Count)
system.mem_ctrl.dram.numReads::total             5362                       # Number of read requests responded to by this memory (Count)
system.mem_ctrl.dram.bwRead::cpu.inst         1348451                       # Total read bandwidth from this memory ((Byte/Second))
system.mem_ctrl.dram.bwRead::cpu.data         3268660                       # Total read bandwidth from this memory ((Byte/Second))
system.mem_ctrl.dram.bwRead::total            4617111                       # Total read bandwidth from this memory ((Byte/Second))
system.mem_ctrl.dram.bwInstRead::cpu.inst      1348451                       # Instruction read bandwidth from this memory ((Byte/Second))
system.mem_ctrl.dram.bwInstRead::total        1348451                       # Instruction read bandwidth from this memory ((Byte/Second))
system.mem_ctrl.dram.bwTotal::cpu.inst        1348451                       # Total bandwidth to/from this memory ((Byte/Second))
system.mem_ctrl.dram.bwTotal::cpu.data        3268660                       # Total bandwidth to/from this memory ((Byte/Second))
system.mem_ctrl.dram.bwTotal::total           4617111                       # Total bandwidth to/from this memory ((Byte/Second))
system.mem_ctrl.dram.readBursts                  5362                       # Number of DRAM read bursts (Count)
system.mem_ctrl.dram.writeBursts                    0                       # Number of DRAM write bursts (Count)
system.mem_ctrl.dram.perBankRdBursts::0           230                       # Per bank write bursts (Count)
system.mem_ctrl.dram.perBankRdBursts::1           229                       # Per bank write bursts (Count)
system.mem_ctrl.dram.perBankRdBursts::2           323                       # Per bank write bursts (Count)
system.mem_ctrl.dram.perBankRdBursts::3           195                       # Per bank write bursts (Count)
system.mem_ctrl.dram.perBankRdBursts::4           368                       # Per bank write bursts (Count)
system.mem_ctrl.dram.perBankRdBursts::5           298                       # Per bank write bursts (Count)
system.mem_ctrl.dram.perBankRdBursts::6           227                       # Per bank write bursts (Count)
system.mem_ctrl.dram.perBankRdBursts::7           289                       # Per bank write bursts (Count)
system.mem_ctrl.dram.perBankRdBursts::8           469                       # Per bank write bursts (Count)
system.mem_ctrl.dram.perBankRdBursts::9           411                       # Per bank write bursts (Count)
system.mem_ctrl.dram.perBankRdBursts::10          452                       # Per bank write bursts (Count)
system.mem_ctrl.dram.perBankRdBursts::11          496                       # Per bank write bursts (Count)
system.mem_ctrl.dram.perBankRdBursts::12          387                       # Per bank write bursts (Count)
system.mem_ctrl.dram.perBankRdBursts::13          338                       # Per bank write bursts (Count)
system.mem_ctrl.dram.perBankRdBursts::14          311                       # Per bank write bursts (Count)
system.mem_ctrl.dram.perBankRdBursts::15          339                       # Per bank write bursts (Count)
system.mem_ctrl.dram.perBankWrBursts::0             0                       # Per bank write bursts (Count)
system.mem_ctrl.dram.perBankWrBursts::1             0                       # Per bank write bursts (Count)
system.mem_ctrl.dram.perBankWrBursts::2             0                       # Per bank write bursts (Count)
system.mem_ctrl.dram.perBankWrBursts::3             0                       # Per bank write bursts (Count)
system.mem_ctrl.dram.perBankWrBursts::4             0                       # Per bank write bursts (Count)
system.mem_ctrl.dram.perBankWrBursts::5             0                       # Per bank write bursts (Count)
system.mem_ctrl.dram.perBankWrBursts::6             0                       # Per bank write bursts (Count)
system.mem_ctrl.dram.perBankWrBursts::7             0                       # Per bank write bursts (Count)
system.mem_ctrl.dram.perBankWrBursts::8             0                       # Per bank write bursts (Count)
system.mem_ctrl.dram.perBankWrBursts::9             0                       # Per bank write bursts (Count)
system.mem_ctrl.dram.perBankWrBursts::10            0                       # Per bank write bursts (Count)
system.mem_ctrl.dram.perBankWrBursts::11            0                       # Per bank write bursts (Count)
system.mem_ctrl.dram.perBankWrBursts::12            0                       # Per bank write bursts (Count)
system.mem_ctrl.dram.perBankWrBursts::13            0                       # Per bank write bursts (Count)
system.mem_ctrl.dram.perBankWrBursts::14            0                       # Per bank write bursts (Count)
system.mem_ctrl.dram.perBankWrBursts::15            0                       # Per bank write bursts (Count)
system.mem_ctrl.dram.totQLat                 46363750                       # Total ticks spent queuing (Tick)
system.mem_ctrl.dram.totBusLat               26810000                       # Total ticks spent in databus transfers (Tick)
system.mem_ctrl.dram.totMemAccLat           146901250                       # Total ticks spent from burst creation until serviced by the DRAM (Tick)
system.mem_ctrl.dram.avgQLat                  8646.73                       # Average queueing delay per DRAM burst ((Tick/Count))
system.mem_ctrl.dram.avgBusLat                5000.00                       # Average bus latency per DRAM burst ((Tick/Count))
system.mem_ctrl.dram.avgMemAccLat            27396.73                       # Average memory access latency per DRAM burst ((Tick/Count))
system.mem_ctrl.dram.readRowHits                 3761                       # Number of row buffer hits during reads (Count)
system.mem_ctrl.dram.writeRowHits                   0                       # Number of row buffer hits during writes (Count)
system.mem_ctrl.dram.readRowHitRate             70.14                       # Row buffer hit rate for reads (Ratio)
system.mem_ctrl.dram.writeRowHitRate              nan                       # Row buffer hit rate for writes (Ratio)
system.mem_ctrl.dram.bytesPerActivate::samples         1601                       # Bytes accessed per row activation (Byte)
system.mem_ctrl.dram.bytesPerActivate::mean   214.346034                       # Bytes accessed per row activation (Byte)
system.mem_ctrl.dram.bytesPerActivate::gmean   138.701492                       # Bytes accessed per row activation (Byte)
system.mem_ctrl.dram.bytesPerActivate::stdev   257.246074                       # Bytes accessed per row activation (Byte)
system.mem_ctrl.dram.bytesPerActivate::0-127          650     40.60%     40.60% # Bytes accessed per row activation (Byte)
system.mem_ctrl.dram.bytesPerActivate::128-255          634     39.60%     80.20% # Bytes accessed per row activation (Byte)
system.mem_ctrl.dram.bytesPerActivate::256-383           90      5.62%     85.82% # Bytes accessed per row activation (Byte)
system.mem_ctrl.dram.bytesPerActivate::384-511           43      2.69%     88.51% # Bytes accessed per row activation (Byte)
system.mem_ctrl.dram.bytesPerActivate::512-639           35      2.19%     90.69% # Bytes accessed per row activation (Byte)
system.mem_ctrl.dram.bytesPerActivate::640-767           20      1.25%     91.94% # Bytes accessed per row activation (Byte)
system.mem_ctrl.dram.bytesPerActivate::768-895           15      0.94%     92.88% # Bytes accessed per row activation (Byte)
system.mem_ctrl.dram.bytesPerActivate::896-1023           10      0.62%     93.50% # Bytes accessed per row activation (Byte)
system.mem_ctrl.dram.bytesPerActivate::1024-1151          104      6.50%    100.00% # Bytes accessed per row activation (Byte)
system.mem_ctrl.dram.bytesPerActivate::total         1601                       # Bytes accessed per row activation (Byte)
system.mem_ctrl.dram.bytesRead                 343168                       # Total bytes read (Byte)
system.mem_ctrl.dram.bytesWritten                   0                       # Total bytes written (Byte)
system.mem_ctrl.dram.avgRdBW                 4.617111                       # Average DRAM read bandwidth in MiBytes/s ((Byte/Second))
system.mem_ctrl.dram.avgWrBW                        0                       # Average DRAM write bandwidth in MiBytes/s ((Byte/Second))
system.mem_ctrl.dram.peakBW                  12800.00                       # Theoretical peak bandwidth in MiByte/s ((Byte/Second))
system.mem_ctrl.dram.busUtil                     0.04                       # Data bus utilization in percentage (Ratio)
system.mem_ctrl.dram.busUtilRead                 0.04                       # Data bus utilization in percentage for reads (Ratio)
system.mem_ctrl.dram.busUtilWrite                0.00                       # Data bus utilization in percentage for writes (Ratio)
system.mem_ctrl.dram.pageHitRate                70.14                       # Row buffer hit rate, read and write combined (Ratio)
system.mem_ctrl.dram.power_state.pwrStateResidencyTicks::UNDEFINED  74325261000                       # Cumulative time (in ticks) in various power states (Tick)
system.mem_ctrl.dram.rank0.actEnergy          5726280                       # Energy for activate commands per rank (pJ) (Joule)
system.mem_ctrl.dram.rank0.preEnergy          3043590                       # Energy for precharge commands per rank (pJ) (Joule)
system.mem_ctrl.dram.rank0.readEnergy        15415260                       # Energy for read commands per rank (pJ) (Joule)
system.mem_ctrl.dram.rank0.writeEnergy              0                       # Energy for write commands per rank (pJ) (Joule)
system.mem_ctrl.dram.rank0.refreshEnergy 5866738800.000001                       # Energy for refresh commands per rank (pJ) (Joule)
system.mem_ctrl.dram.rank0.actBackEnergy   1899750150                       # Energy for active background per rank (pJ) (Joule)
system.mem_ctrl.dram.rank0.preBackEnergy  26941110720                       # Energy for precharge background per rank (pJ) (Joule)
system.mem_ctrl.dram.rank0.actPowerDownEnergy            0                       # Energy for active power-down per rank (pJ) (Joule)
system.mem_ctrl.dram.rank0.prePowerDownEnergy            0                       # Energy for precharge power-down per rank (pJ) (Joule)
system.mem_ctrl.dram.rank0.selfRefreshEnergy            0                       # Energy for self refresh per rank (pJ) (Joule)
system.mem_ctrl.dram.rank0.totalEnergy    34731784800                       # Total energy per rank (pJ) (Joule)
system.mem_ctrl.dram.rank0.averagePower    467.294488                       # Core power per rank (mW) (Watt)
system.mem_ctrl.dram.rank0.totalIdleTime            0                       # Total Idle time Per DRAM Rank (Tick)
system.mem_ctrl.dram.rank0.pwrStateTime::IDLE  70023432000                       # Time in different power states (Tick)
system.mem_ctrl.dram.rank0.pwrStateTime::REF   2481700000                       # Time in different power states (Tick)
system.mem_ctrl.dram.rank0.pwrStateTime::SREF            0                       # Time in different power states (Tick)
system.mem_ctrl.dram.rank0.pwrStateTime::PRE_PDN            0                       # Time in different power states (Tick)
system.mem_ctrl.dram.rank0.pwrStateTime::ACT   1820129000                       # Time in different power states (Tick)
system.mem_ctrl.dram.rank0.pwrStateTime::ACT_PDN            0                       # Time in different power states (Tick)
system.mem_ctrl.dram.rank1.actEnergy          5704860                       # Energy for activate commands per rank (pJ) (Joule)
system.mem_ctrl.dram.rank1.preEnergy          3032205                       # Energy for precharge commands per rank (pJ) (Joule)
system.mem_ctrl.dram.rank1.readEnergy        22869420                       # Energy for read commands per rank (pJ) (Joule)
system.mem_ctrl.dram.rank1.writeEnergy              0                       # Energy for write commands per rank (pJ) (Joule)
system.mem_ctrl.dram.rank1.refreshEnergy 5866738800.000001                       # Energy for refresh commands per rank (pJ) (Joule)
system.mem_ctrl.dram.rank1.actBackEnergy   1936903890                       # Energy for active background per rank (pJ) (Joule)
system.mem_ctrl.dram.rank1.preBackEnergy  26909823360                       # Energy for precharge background per rank (pJ) (Joule)
system.mem_ctrl.dram.rank1.actPowerDownEnergy            0                       # Energy for active power-down per rank (pJ) (Joule)
system.mem_ctrl.dram.rank1.prePowerDownEnergy            0                       # Energy for precharge power-down per rank (pJ) (Joule)
system.mem_ctrl.dram.rank1.selfRefreshEnergy            0                       # Energy for self refresh per rank (pJ) (Joule)
system.mem_ctrl.dram.rank1.totalEnergy    34745072535                       # Total energy per rank (pJ) (Joule)
system.mem_ctrl.dram.rank1.averagePower    467.473266                       # Core power per rank (mW) (Watt)
system.mem_ctrl.dram.rank1.totalIdleTime            0                       # Total Idle time Per DRAM Rank (Tick)
system.mem_ctrl.dram.rank1.pwrStateTime::IDLE  69940900500                       # Time in different power states (Tick)
system.mem_ctrl.dram.rank1.pwrStateTime::REF   2481700000                       # Time in different power states (Tick)
system.mem_ctrl.dram.rank1.pwrStateTime::SREF            0                       # Time in different power states (Tick)
system.mem_ctrl.dram.rank1.pwrStateTime::PRE_PDN            0                       # Time in different power states (Tick)
system.mem_ctrl.dram.rank1.pwrStateTime::ACT   1902660500                       # Time in different power states (Tick)
system.mem_ctrl.dram.rank1.pwrStateTime::ACT_PDN            0                       # Time in different power states (Tick)
system.mem_ctrl.power_state.pwrStateResidencyTicks::UNDEFINED  74325261000                       # Cumulative time (in ticks) in various power states (Tick)
system.membus.transDist::ReadResp                2551                       # Transaction distribution (Count)
system.membus.transDist::ReadExReq               2811                       # Transaction distribution (Count)
system.membus.transDist::ReadExResp              2811                       # Transaction distribution (Count)
system.membus.transDist::ReadSharedReq           2551                       # Transaction distribution (Count)
system.membus.pktCount_system.l2cache.mem_side_port::system.mem_ctrl.port        10724                       # Packet count per connected requestor and responder (Count)
system.membus.pktCount_system.l2cache.mem_side_port::total        10724                       # Packet count per connected requestor and responder (Count)
system.membus.pktCount::total                   10724                       # Packet count per connected requestor and responder (Count)
system.membus.pktSize_system.l2cache.mem_side_port::system.mem_ctrl.port       343168                       # Cumulative packet size per connected requestor and responder (Byte)
system.membus.pktSize_system.l2cache.mem_side_port::total       343168                       # Cumulative packet size per connected requestor and responder (Byte)
system.membus.pktSize::total                   343168                       # Cumulative packet size per connected requestor and responder (Byte)
system.membus.snoops                                0                       # Total snoops (Count)
system.membus.snoopTraffic                          0                       # Total snoop traffic (Byte)
system.membus.snoopFanout::samples               5362                       # Request fanout histogram (Count)
system.membus.snoopFanout::mean                     0                       # Request fanout histogram (Count)
system.membus.snoopFanout::stdev                    0                       # Request fanout histogram (Count)
system.membus.snoopFanout::underflows               0      0.00%      0.00% # Request fanout histogram (Count)
system.membus.snoopFanout::0                     5362    100.00%    100.00% # Request fanout histogram (Count)
system.membus.snoopFanout::1                        0      0.00%    100.00% # Request fanout histogram (Count)
system.membus.snoopFanout::overflows                0      0.00%    100.00% # Request fanout histogram (Count)
system.membus.snoopFanout::min_value                0                       # Request fanout histogram (Count)
system.membus.snoopFanout::max_value                0                       # Request fanout histogram (Count)
system.membus.snoopFanout::total                 5362                       # Request fanout histogram (Count)
system.membus.power_state.pwrStateResidencyTicks::UNDEFINED  74325261000                       # Cumulative time (in ticks) in various power states (Tick)
system.membus.reqLayer2.occupancy             5362000                       # Layer occupancy (ticks) (Tick)
system.membus.reqLayer2.utilization               0.0                       # Layer utilization (Ratio)
system.membus.respLayer0.occupancy           28479250                       # Layer occupancy (ticks) (Tick)
system.membus.respLayer0.utilization              0.0                       # Layer utilization (Ratio)
system.membus.snoop_filter.totRequests           5362                       # Total number of requests made to the snoop filter. (Count)
system.membus.snoop_filter.hitSingleRequests            0                       # Number of requests hitting in the snoop filter with a single holder of the requested data. (Count)
system.membus.snoop_filter.hitMultiRequests            0                       # Number of requests hitting in the snoop filter with multiple (>1) holders of the requested data. (Count)
system.membus.snoop_filter.totSnoops                0                       # Total number of snoops made to the snoop filter. (Count)
system.membus.snoop_filter.hitSingleSnoops            0                       # Number of snoops hitting in the snoop filter with a single holder of the requested data. (Count)
system.membus.snoop_filter.hitMultiSnoops            0                       # Number of snoops hitting in the snoop filter with multiple (>1) holders of the requested data. (Count)
system.workload.inst.arm                            0                       # number of arm instructions executed (Count)
system.workload.inst.quiesce                        0                       # number of quiesce instructions executed (Count)

---------- End Simulation Statistics   ----------
