
---------- Begin Simulation Statistics ----------
simSeconds                                   0.041353                       # Number of seconds simulated (Second)
simTicks                                  41352606000                       # Number of ticks simulated (Tick)
finalTick                                 41352606000                       # Number of ticks from beginning of simulation (restored from checkpoints and never reset) (Tick)
simFreq                                  1000000000000                       # The number of ticks per simulated second ((Tick/Second))
hostSeconds                                    222.38                       # Real time elapsed on the host (Second)
hostTickRate                                185955216                       # The number of ticks simulated per host second (ticks/s) ((Tick/Second))
hostMemory                                    8528528                       # Number of bytes of host memory used (Byte)
simInsts                                     50000000                       # Number of instructions simulated (Count)
simOps                                       94757854                       # Number of ops (including micro ops) simulated (Count)
hostInstRate                                   224841                       # Simulator instruction rate (inst/s) ((Count/Second))
hostOpRate                                     426109                       # Simulator op (including micro ops) rate (op/s) ((Count/Second))
system.clk_domain.clock                          1000                       # Clock period in ticks (Tick)
system.clk_domain.voltage_domain.voltage            1                       # Voltage in Volts (Volt)
system.cpu.numCycles                         41352607                       # Number of cpu cycles simulated (Cycle)
system.cpu.numWorkItemsStarted                      0                       # Number of work items this cpu started (Count)
system.cpu.numWorkItemsCompleted                    0                       # Number of work items this cpu completed (Count)
system.cpu.instsAdded                       131816044                       # Number of instructions added to the IQ (excludes non-spec) (Count)
system.cpu.nonSpecInstsAdded                    86437                       # Number of non-speculative instructions added to the IQ (Count)
system.cpu.instsIssued                      120738115                       # Number of instructions issued (Count)
system.cpu.squashedInstsIssued                 299697                       # Number of squashed instructions issued (Count)
system.cpu.squashedInstsExamined             37144611                       # Number of squashed instructions iterated over during squash; mainly for profiling (Count)
system.cpu.squashedOperandsExamined          57298118                       # Number of squashed operands that are examined and possibly removed from graph (Count)
system.cpu.squashedNonSpecRemoved               86401                       # Number of squashed non-spec instructions that were removed (Count)
system.cpu.numIssuedDist::samples            41325948                       # Number of insts issued each cycle (Count)
system.cpu.numIssuedDist::mean               2.921605                       # Number of insts issued each cycle (Count)
system.cpu.numIssuedDist::stdev              2.607340                       # Number of insts issued each cycle (Count)
system.cpu.numIssuedDist::underflows                0      0.00%      0.00% # Number of insts issued each cycle (Count)
system.cpu.numIssuedDist::0                  13316775     32.22%     32.22% # Number of insts issued each cycle (Count)
system.cpu.numIssuedDist::1                   2613729      6.32%     38.55% # Number of insts issued each cycle (Count)
system.cpu.numIssuedDist::2                   3541426      8.57%     47.12% # Number of insts issued each cycle (Count)
system.cpu.numIssuedDist::3                   4656801     11.27%     58.39% # Number of insts issued each cycle (Count)
system.cpu.numIssuedDist::4                   3857855      9.34%     67.72% # Number of insts issued each cycle (Count)
system.cpu.numIssuedDist::5                   4454498     10.78%     78.50% # Number of insts issued each cycle (Count)
system.cpu.numIssuedDist::6                   4478641     10.84%     89.34% # Number of insts issued each cycle (Count)
system.cpu.numIssuedDist::7                   2754409      6.67%     96.00% # Number of insts issued each cycle (Count)
system.cpu.numIssuedDist::8                   1651814      4.00%    100.00% # Number of insts issued each cycle (Count)
system.cpu.numIssuedDist::overflows                 0      0.00%    100.00% # Number of insts issued each cycle (Count)
system.cpu.numIssuedDist::min_value                 0                       # Number of insts issued each cycle (Count)
system.cpu.numIssuedDist::max_value                 8                       # Number of insts issued each cycle (Count)
system.cpu.numIssuedDist::total              41325948                       # Number of insts issued each cycle (Count)
system.cpu.statFuBusy::No_OpClass                   0      0.00%      0.00% # attempts to use FU when none available (Count)
system.cpu.statFuBusy::IntAlu                 2183013     93.81%     93.81% # attempts to use FU when none available (Count)
system.cpu.statFuBusy::IntMult                      0      0.00%     93.81% # attempts to use FU when none available (Count)
system.cpu.statFuBusy::IntDiv                       0      0.00%     93.81% # attempts to use FU when none available (Count)
system.cpu.statFuBusy::FloatAdd                     0      0.00%     93.81% # attempts to use FU when none available (Count)
system.cpu.statFuBusy::FloatCmp                     0      0.00%     93.81% # attempts to use FU when none available (Count)
system.cpu.statFuBusy::FloatCvt                     0      0.00%     93.81% # attempts to use FU when none available (Count)
system.cpu.statFuBusy::FloatMult                    0      0.00%     93.81% # attempts to use FU when none available (Count)
system.cpu.statFuBusy::FloatMultAcc                 0      0.00%     93.81% # attempts to use FU when none available (Count)
system.cpu.statFuBusy::FloatDiv                     0      0.00%     93.81% # attempts to use FU when none available (Count)
system.cpu.statFuBusy::FloatMisc                    0      0.00%     93.81% # attempts to use FU when none available (Count)
system.cpu.statFuBusy::FloatSqrt                    0      0.00%     93.81% # attempts to use FU when none available (Count)
system.cpu.statFuBusy::SimdAdd                      0      0.00%     93.81% # attempts to use FU when none available (Count)
system.cpu.statFuBusy::SimdAddAcc                   0      0.00%     93.81% # attempts to use FU when none available (Count)
system.cpu.statFuBusy::SimdAlu                     16      0.00%     93.81% # attempts to use FU when none available (Count)
system.cpu.statFuBusy::SimdCmp                      0      0.00%     93.81% # attempts to use FU when none available (Count)
system.cpu.statFuBusy::SimdCvt                    764      0.03%     93.84% # attempts to use FU when none available (Count)
system.cpu.statFuBusy::SimdMisc                    16      0.00%     93.84% # attempts to use FU when none available (Count)
system.cpu.statFuBusy::SimdMult                     0      0.00%     93.84% # attempts to use FU when none available (Count)
system.cpu.statFuBusy::SimdMultAcc                  0      0.00%     93.84% # attempts to use FU when none available (Count)
system.cpu.statFuBusy::SimdShift                    0      0.00%     93.84% # attempts to use FU when none available (Count)
system.cpu.statFuBusy::SimdShiftAcc                 0      0.00%     93.84% # attempts to use FU when none available (Count)
system.cpu.statFuBusy::SimdDiv                      0      0.00%     93.84% # attempts to use FU when none available (Count)
system.cpu.statFuBusy::SimdSqrt                     0      0.00%     93.84% # attempts to use FU when none available (Count)
system.cpu.statFuBusy::SimdFloatAdd                 0      0.00%     93.84% # attempts to use FU when none available (Count)
system.cpu.statFuBusy::SimdFloatAlu                 0      0.00%     93.84% # attempts to use FU when none available (Count)
system.cpu.statFuBusy::SimdFloatCmp                 0      0.00%     93.84% # attempts to use FU when none available (Count)
system.cpu.statFuBusy::SimdFloatCvt                 0      0.00%     93.84% # attempts to use FU when none available (Count)
system.cpu.statFuBusy::SimdFloatDiv                 0      0.00%     93.84% # attempts to use FU when none available (Count)
system.cpu.statFuBusy::SimdFloatMisc                0      0.00%     93.84% # attempts to use FU when none available (Count)
system.cpu.statFuBusy::SimdFloatMult                0      0.00%     93.84% # attempts to use FU when none available (Count)
system.cpu.statFuBusy::SimdFloatMultAcc             0      0.00%     93.84% # attempts to use FU when none available (Count)
system.cpu.statFuBusy::SimdFloatSqrt                0      0.00%     93.84% # attempts to use FU when none available (Count)
system.cpu.statFuBusy::SimdReduceAdd                0      0.00%     93.84% # attempts to use FU when none available (Count)
system.cpu.statFuBusy::SimdReduceAlu                0      0.00%     93.84% # attempts to use FU when none available (Count)
system.cpu.statFuBusy::SimdReduceCmp                0      0.00%     93.84% # attempts to use FU when none available (Count)
system.cpu.statFuBusy::SimdFloatReduceAdd            0      0.00%     93.84% # attempts to use FU when none available (Count)
system.cpu.statFuBusy::SimdFloatReduceCmp            0      0.00%     93.84% # attempts to use FU when none available (Count)
system.cpu.statFuBusy::SimdAes                      0      0.00%     93.84% # attempts to use FU when none available (Count)
system.cpu.statFuBusy::SimdAesMix                   0      0.00%     93.84% # attempts to use FU when none available (Count)
system.cpu.statFuBusy::SimdSha1Hash                 0      0.00%     93.84% # attempts to use FU when none available (Count)
system.cpu.statFuBusy::SimdSha1Hash2                0      0.00%     93.84% # attempts to use FU when none available (Count)
system.cpu.statFuBusy::SimdSha256Hash               0      0.00%     93.84% # attempts to use FU when none available (Count)
system.cpu.statFuBusy::SimdSha256Hash2              0      0.00%     93.84% # attempts to use FU when none available (Count)
system.cpu.statFuBusy::SimdShaSigma2                0      0.00%     93.84% # attempts to use FU when none available (Count)
system.cpu.statFuBusy::SimdShaSigma3                0      0.00%     93.84% # attempts to use FU when none available (Count)
system.cpu.statFuBusy::SimdPredAlu                  0      0.00%     93.84% # attempts to use FU when none available (Count)
system.cpu.statFuBusy::MemRead                 142740      6.13%     99.97% # attempts to use FU when none available (Count)
system.cpu.statFuBusy::MemWrite                   528      0.02%    100.00% # attempts to use FU when none available (Count)
system.cpu.statFuBusy::FloatMemRead                45      0.00%    100.00% # attempts to use FU when none available (Count)
system.cpu.statFuBusy::FloatMemWrite               21      0.00%    100.00% # attempts to use FU when none available (Count)
system.cpu.statFuBusy::IprAccess                    0      0.00%    100.00% # attempts to use FU when none available (Count)
system.cpu.statFuBusy::InstPrefetch                 0      0.00%    100.00% # attempts to use FU when none available (Count)
system.cpu.statIssuedInstType_0::No_OpClass       426326      0.35%      0.35% # Number of instructions issued per FU type, per thread (Count)
system.cpu.statIssuedInstType_0::IntAlu      96865076     80.23%     80.58% # Number of instructions issued per FU type, per thread (Count)
system.cpu.statIssuedInstType_0::IntMult       280045      0.23%     80.81% # Number of instructions issued per FU type, per thread (Count)
system.cpu.statIssuedInstType_0::IntDiv            35      0.00%     80.81% # Number of instructions issued per FU type, per thread (Count)
system.cpu.statIssuedInstType_0::FloatAdd        50802      0.04%     80.85% # Number of instructions issued per FU type, per thread (Count)
system.cpu.statIssuedInstType_0::FloatCmp            0      0.00%     80.85% # Number of instructions issued per FU type, per thread (Count)
system.cpu.statIssuedInstType_0::FloatCvt            0      0.00%     80.85% # Number of instructions issued per FU type, per thread (Count)
system.cpu.statIssuedInstType_0::FloatMult            0      0.00%     80.85% # Number of instructions issued per FU type, per thread (Count)
system.cpu.statIssuedInstType_0::FloatMultAcc            0      0.00%     80.85% # Number of instructions issued per FU type, per thread (Count)
system.cpu.statIssuedInstType_0::FloatDiv            0      0.00%     80.85% # Number of instructions issued per FU type, per thread (Count)
system.cpu.statIssuedInstType_0::FloatMisc            0      0.00%     80.85% # Number of instructions issued per FU type, per thread (Count)
system.cpu.statIssuedInstType_0::FloatSqrt            0      0.00%     80.85% # Number of instructions issued per FU type, per thread (Count)
system.cpu.statIssuedInstType_0::SimdAdd            0      0.00%     80.85% # Number of instructions issued per FU type, per thread (Count)
system.cpu.statIssuedInstType_0::SimdAddAcc            0      0.00%     80.85% # Number of instructions issued per FU type, per thread (Count)
system.cpu.statIssuedInstType_0::SimdAlu          136      0.00%     80.85% # Number of instructions issued per FU type, per thread (Count)
system.cpu.statIssuedInstType_0::SimdCmp            0      0.00%     80.85% # Number of instructions issued per FU type, per thread (Count)
system.cpu.statIssuedInstType_0::SimdCvt       153420      0.13%     80.98% # Number of instructions issued per FU type, per thread (Count)
system.cpu.statIssuedInstType_0::SimdMisc       504528      0.42%     81.40% # Number of instructions issued per FU type, per thread (Count)
system.cpu.statIssuedInstType_0::SimdMult            0      0.00%     81.40% # Number of instructions issued per FU type, per thread (Count)
system.cpu.statIssuedInstType_0::SimdMultAcc            0      0.00%     81.40% # Number of instructions issued per FU type, per thread (Count)
system.cpu.statIssuedInstType_0::SimdShift            0      0.00%     81.40% # Number of instructions issued per FU type, per thread (Count)
system.cpu.statIssuedInstType_0::SimdShiftAcc            0      0.00%     81.40% # Number of instructions issued per FU type, per thread (Count)
system.cpu.statIssuedInstType_0::SimdDiv            0      0.00%     81.40% # Number of instructions issued per FU type, per thread (Count)
system.cpu.statIssuedInstType_0::SimdSqrt            0      0.00%     81.40% # Number of instructions issued per FU type, per thread (Count)
system.cpu.statIssuedInstType_0::SimdFloatAdd            0      0.00%     81.40% # Number of instructions issued per FU type, per thread (Count)
system.cpu.statIssuedInstType_0::SimdFloatAlu            0      0.00%     81.40% # Number of instructions issued per FU type, per thread (Count)
system.cpu.statIssuedInstType_0::SimdFloatCmp            0      0.00%     81.40% # Number of instructions issued per FU type, per thread (Count)
system.cpu.statIssuedInstType_0::SimdFloatCvt            0      0.00%     81.40% # Number of instructions issued per FU type, per thread (Count)
system.cpu.statIssuedInstType_0::SimdFloatDiv            0      0.00%     81.40% # Number of instructions issued per FU type, per thread (Count)
system.cpu.statIssuedInstType_0::SimdFloatMisc            0      0.00%     81.40% # Number of instructions issued per FU type, per thread (Count)
system.cpu.statIssuedInstType_0::SimdFloatMult            0      0.00%     81.40% # Number of instructions issued per FU type, per thread (Count)
system.cpu.statIssuedInstType_0::SimdFloatMultAcc            0      0.00%     81.40% # Number of instructions issued per FU type, per thread (Count)
system.cpu.statIssuedInstType_0::SimdFloatSqrt            0      0.00%     81.40% # Number of instructions issued per FU type, per thread (Count)
system.cpu.statIssuedInstType_0::SimdReduceAdd            0      0.00%     81.40% # Number of instructions issued per FU type, per thread (Count)
system.cpu.statIssuedInstType_0::SimdReduceAlu            0      0.00%     81.40% # Number of instructions issued per FU type, per thread (Count)
system.cpu.statIssuedInstType_0::SimdReduceCmp            0      0.00%     81.40% # Number of instructions issued per FU type, per thread (Count)
system.cpu.statIssuedInstType_0::SimdFloatReduceAdd            0      0.00%     81.40% # Number of instructions issued per FU type, per thread (Count)
system.cpu.statIssuedInstType_0::SimdFloatReduceCmp            0      0.00%     81.40% # Number of instructions issued per FU type, per thread (Count)
system.cpu.statIssuedInstType_0::SimdAes            0      0.00%     81.40% # Number of instructions issued per FU type, per thread (Count)
system.cpu.statIssuedInstType_0::SimdAesMix            0      0.00%     81.40% # Number of instructions issued per FU type, per thread (Count)
system.cpu.statIssuedInstType_0::SimdSha1Hash            0      0.00%     81.40% # Number of instructions issued per FU type, per thread (Count)
system.cpu.statIssuedInstType_0::SimdSha1Hash2            0      0.00%     81.40% # Number of instructions issued per FU type, per thread (Count)
system.cpu.statIssuedInstType_0::SimdSha256Hash            0      0.00%     81.40% # Number of instructions issued per FU type, per thread (Count)
system.cpu.statIssuedInstType_0::SimdSha256Hash2            0      0.00%     81.40% # Number of instructions issued per FU type, per thread (Count)
system.cpu.statIssuedInstType_0::SimdShaSigma2            0      0.00%     81.40% # Number of instructions issued per FU type, per thread (Count)
system.cpu.statIssuedInstType_0::SimdShaSigma3            0      0.00%     81.40% # Number of instructions issued per FU type, per thread (Count)
system.cpu.statIssuedInstType_0::SimdPredAlu            0      0.00%     81.40% # Number of instructions issued per FU type, per thread (Count)
system.cpu.statIssuedInstType_0::MemRead     14036094     11.63%     93.02% # Number of instructions issued per FU type, per thread (Count)
system.cpu.statIssuedInstType_0::MemWrite      8231209      6.82%     99.84% # Number of instructions issued per FU type, per thread (Count)
system.cpu.statIssuedInstType_0::FloatMemRead       190175      0.16%    100.00% # Number of instructions issued per FU type, per thread (Count)
system.cpu.statIssuedInstType_0::FloatMemWrite          269      0.00%    100.00% # Number of instructions issued per FU type, per thread (Count)
system.cpu.statIssuedInstType_0::IprAccess            0      0.00%    100.00% # Number of instructions issued per FU type, per thread (Count)
system.cpu.statIssuedInstType_0::InstPrefetch            0      0.00%    100.00% # Number of instructions issued per FU type, per thread (Count)
system.cpu.statIssuedInstType_0::total      120738115                       # Number of instructions issued per FU type, per thread (Count)
system.cpu.issueRate                         2.919722                       # Inst issue rate ((Count/Cycle))
system.cpu.fuBusy                             2327143                       # FU busy when requested (Count)
system.cpu.fuBusyRate                        0.019274                       # FU busy rate (busy events/executed inst) ((Count/Count))
system.cpu.intInstQueueReads                283527617                       # Number of integer instruction queue reads (Count)
system.cpu.intInstQueueWrites               167782793                       # Number of integer instruction queue writes (Count)
system.cpu.intInstQueueWakeupAccesses       116317088                       # Number of integer instruction queue wakeup accesses (Count)
system.cpu.fpInstQueueReads                   1901399                       # Number of floating instruction queue reads (Count)
system.cpu.fpInstQueueWrites                  1265149                       # Number of floating instruction queue writes (Count)
system.cpu.fpInstQueueWakeupAccesses           913242                       # Number of floating instruction queue wakeup accesses (Count)
system.cpu.vecInstQueueReads                        0                       # Number of vector instruction queue reads (Count)
system.cpu.vecInstQueueWrites                       0                       # Number of vector instruction queue writes (Count)
system.cpu.vecInstQueueWakeupAccesses               0                       # Number of vector instruction queue wakeup accesses (Count)
system.cpu.intAluAccesses                   121687970                       # Number of integer alu accesses (Count)
system.cpu.fpAluAccesses                       950962                       # Number of floating point alu accesses (Count)
system.cpu.vecAluAccesses                           0                       # Number of vector alu accesses (Count)
system.cpu.numInsts                         118225605                       # Number of executed instructions (Count)
system.cpu.numLoadInsts                      13800507                       # Number of load instructions executed (Count)
system.cpu.numSquashedInsts                   2512508                       # Number of squashed instructions skipped in execute (Count)
system.cpu.numSwp                                   0                       # Number of swp insts executed (Count)
system.cpu.numNop                                   0                       # Number of nop insts executed (Count)
system.cpu.numRefs                           21784458                       # Number of memory reference insts executed (Count)
system.cpu.numBranches                       13688466                       # Number of branches executed (Count)
system.cpu.numStoreInsts                      7983951                       # Number of stores executed (Count)
system.cpu.numRate                           2.858964                       # Inst execution rate ((Count/Cycle))
system.cpu.timesIdled                             414                       # Number of times that the entire CPU went into an idle state and unscheduled itself (Count)
system.cpu.idleCycles                           26659                       # Total number of cycles that the CPU has spent unscheduled due to idling (Cycle)
system.cpu.committedInsts                    50000000                       # Number of Instructions Simulated (Count)
system.cpu.committedOps                      94757854                       # Number of Ops (including micro ops) Simulated (Count)
system.cpu.cpi                               0.827052                       # CPI: Cycles Per Instruction ((Cycle/Count))
system.cpu.totalCpi                          0.827052                       # CPI: Total CPI of All Threads ((Cycle/Count))
system.cpu.ipc                               1.209114                       # IPC: Instructions Per Cycle ((Count/Cycle))
system.cpu.totalIpc                          1.209114                       # IPC: Total IPC of All Threads ((Count/Cycle))
system.cpu.intRegfileReads                  141562181                       # Number of integer regfile reads (Count)
system.cpu.intRegfileWrites                  83015196                       # Number of integer regfile writes (Count)
system.cpu.fpRegfileReads                     1472961                       # Number of floating regfile reads (Count)
system.cpu.fpRegfileWrites                     769699                       # Number of floating regfile writes (Count)
system.cpu.ccRegfileReads                    69416273                       # number of cc regfile reads (Count)
system.cpu.ccRegfileWrites                   36690992                       # number of cc regfile writes (Count)
system.cpu.miscRegfileReads                  50257095                       # number of misc regfile reads (Count)
system.cpu.MemDepUnit__0.insertedLoads       15707807                       # Number of loads inserted to the mem dependence unit. (Count)
system.cpu.MemDepUnit__0.insertedStores       8826181                       # Number of stores inserted to the mem dependence unit. (Count)
system.cpu.MemDepUnit__0.conflictingLoads      1102021                       # Number of conflicting loads. (Count)
system.cpu.MemDepUnit__0.conflictingStores       467306                       # Number of conflicting stores. (Count)
system.cpu.MemDepUnit__1.insertedLoads              0                       # Number of loads inserted to the mem dependence unit. (Count)
system.cpu.MemDepUnit__1.insertedStores             0                       # Number of stores inserted to the mem dependence unit. (Count)
system.cpu.MemDepUnit__1.conflictingLoads            0                       # Number of conflicting loads. (Count)
system.cpu.MemDepUnit__1.conflictingStores            0                       # Number of conflicting stores. (Count)
system.cpu.MemDepUnit__2.insertedLoads              0                       # Number of loads inserted to the mem dependence unit. (Count)
system.cpu.MemDepUnit__2.insertedStores             0                       # Number of stores inserted to the mem dependence unit. (Count)
system.cpu.MemDepUnit__2.conflictingLoads            0                       # Number of conflicting loads. (Count)
system.cpu.MemDepUnit__2.conflictingStores            0                       # Number of conflicting stores. (Count)
system.cpu.MemDepUnit__3.insertedLoads              0                       # Number of loads inserted to the mem dependence unit. (Count)
system.cpu.MemDepUnit__3.insertedStores             0                       # Number of stores inserted to the mem dependence unit. (Count)
system.cpu.MemDepUnit__3.conflictingLoads            0                       # Number of conflicting loads. (Count)
system.cpu.MemDepUnit__3.conflictingStores            0                       # Number of conflicting stores. (Count)
system.cpu.branchPred.lookups                18745152                       # Number of BP lookups (Count)
system.cpu.branchPred.condPredicted          15078321                       # Number of conditional branches predicted (Count)
system.cpu.branchPred.condIncorrect           1060374                       # Number of conditional branches incorrect (Count)
system.cpu.branchPred.BTBLookups              6360880                       # Number of BTB lookups (Count)
system.cpu.branchPred.BTBHits                 5600837                       # Number of BTB hits (Count)
system.cpu.branchPred.BTBHitRatio            0.880513                       # BTB Hit Ratio (Ratio)
system.cpu.branchPred.RASUsed                 1063514                       # Number of times the RAS was used to get a target. (Count)
system.cpu.branchPred.RASIncorrect              42297                       # Number of incorrect RAS predictions. (Count)
system.cpu.branchPred.indirectLookups          383996                       # Number of indirect predictor lookups. (Count)
system.cpu.branchPred.indirectHits             142605                       # Number of indirect target hits. (Count)
system.cpu.branchPred.indirectMisses           241391                       # Number of indirect misses. (Count)
system.cpu.branchPred.indirectMispredicted           93                       # Number of mispredicted indirect branches. (Count)
system.cpu.commit.commitSquashedInsts        37123691                       # The number of squashed insts skipped by commit (Count)
system.cpu.commit.commitNonSpecStalls              36                       # The number of times commit has been forced to stall to communicate backwards (Count)
system.cpu.commit.branchMispredicts           1058260                       # The number of times a branch was mispredicted (Count)
system.cpu.commit.numCommittedDist::samples     36120734                       # Number of insts commited each cycle (Count)
system.cpu.commit.numCommittedDist::mean     2.623365                       # Number of insts commited each cycle (Count)
system.cpu.commit.numCommittedDist::stdev     2.823906                       # Number of insts commited each cycle (Count)
system.cpu.commit.numCommittedDist::underflows            0      0.00%      0.00% # Number of insts commited each cycle (Count)
system.cpu.commit.numCommittedDist::0        12145321     33.62%     33.62% # Number of insts commited each cycle (Count)
system.cpu.commit.numCommittedDist::1         5134229     14.21%     47.84% # Number of insts commited each cycle (Count)
system.cpu.commit.numCommittedDist::2         4069155     11.27%     59.10% # Number of insts commited each cycle (Count)
system.cpu.commit.numCommittedDist::3         4292694     11.88%     70.99% # Number of insts commited each cycle (Count)
system.cpu.commit.numCommittedDist::4         1871286      5.18%     76.17% # Number of insts commited each cycle (Count)
system.cpu.commit.numCommittedDist::5         1586696      4.39%     80.56% # Number of insts commited each cycle (Count)
system.cpu.commit.numCommittedDist::6         1170414      3.24%     83.80% # Number of insts commited each cycle (Count)
system.cpu.commit.numCommittedDist::7          641387      1.78%     85.58% # Number of insts commited each cycle (Count)
system.cpu.commit.numCommittedDist::8         5209552     14.42%    100.00% # Number of insts commited each cycle (Count)
system.cpu.commit.numCommittedDist::overflows            0      0.00%    100.00% # Number of insts commited each cycle (Count)
system.cpu.commit.numCommittedDist::min_value            0                       # Number of insts commited each cycle (Count)
system.cpu.commit.numCommittedDist::max_value            8                       # Number of insts commited each cycle (Count)
system.cpu.commit.numCommittedDist::total     36120734                       # Number of insts commited each cycle (Count)
system.cpu.commit.instsCommitted             50000000                       # Number of instructions committed (Count)
system.cpu.commit.opsCommitted               94757854                       # Number of ops (including micro ops) committed (Count)
system.cpu.commit.memRefs                    17616402                       # Number of memory references committed (Count)
system.cpu.commit.loads                      10653360                       # Number of loads committed (Count)
system.cpu.commit.amos                              0                       # Number of atomic instructions committed (Count)
system.cpu.commit.membars                          24                       # Number of memory barriers committed (Count)
system.cpu.commit.branches                   11816955                       # Number of branches committed (Count)
system.cpu.commit.vectorInstructions                0                       # Number of committed Vector instructions. (Count)
system.cpu.commit.floating                     797407                       # Number of committed floating point instructions. (Count)
system.cpu.commit.integer                    93840963                       # Number of committed integer instructions. (Count)
system.cpu.commit.functionCalls                489612                       # Number of function calls committed. (Count)
system.cpu.commit.committedInstType_0::No_OpClass       206365      0.22%      0.22% # Class of committed instruction (Count)
system.cpu.commit.committedInstType_0::IntAlu     76071911     80.28%     80.50% # Class of committed instruction (Count)
system.cpu.commit.committedInstType_0::IntMult       230150      0.24%     80.74% # Class of committed instruction (Count)
system.cpu.commit.committedInstType_0::IntDiv           28      0.00%     80.74% # Class of committed instruction (Count)
system.cpu.commit.committedInstType_0::FloatAdd        50759      0.05%     80.79% # Class of committed instruction (Count)
system.cpu.commit.committedInstType_0::FloatCmp            0      0.00%     80.79% # Class of committed instruction (Count)
system.cpu.commit.committedInstType_0::FloatCvt            0      0.00%     80.79% # Class of committed instruction (Count)
system.cpu.commit.committedInstType_0::FloatMult            0      0.00%     80.79% # Class of committed instruction (Count)
system.cpu.commit.committedInstType_0::FloatMultAcc            0      0.00%     80.79% # Class of committed instruction (Count)
system.cpu.commit.committedInstType_0::FloatDiv            0      0.00%     80.79% # Class of committed instruction (Count)
system.cpu.commit.committedInstType_0::FloatMisc            0      0.00%     80.79% # Class of committed instruction (Count)
system.cpu.commit.committedInstType_0::FloatSqrt            0      0.00%     80.79% # Class of committed instruction (Count)
system.cpu.commit.committedInstType_0::SimdAdd            0      0.00%     80.79% # Class of committed instruction (Count)
system.cpu.commit.committedInstType_0::SimdAddAcc            0      0.00%     80.79% # Class of committed instruction (Count)
system.cpu.commit.committedInstType_0::SimdAlu           98      0.00%     80.79% # Class of committed instruction (Count)
system.cpu.commit.committedInstType_0::SimdCmp            0      0.00%     80.79% # Class of committed instruction (Count)
system.cpu.commit.committedInstType_0::SimdCvt       113412      0.12%     80.91% # Class of committed instruction (Count)
system.cpu.commit.committedInstType_0::SimdMisc       468729      0.49%     81.41% # Class of committed instruction (Count)
system.cpu.commit.committedInstType_0::SimdMult            0      0.00%     81.41% # Class of committed instruction (Count)
system.cpu.commit.committedInstType_0::SimdMultAcc            0      0.00%     81.41% # Class of committed instruction (Count)
system.cpu.commit.committedInstType_0::SimdShift            0      0.00%     81.41% # Class of committed instruction (Count)
system.cpu.commit.committedInstType_0::SimdShiftAcc            0      0.00%     81.41% # Class of committed instruction (Count)
system.cpu.commit.committedInstType_0::SimdDiv            0      0.00%     81.41% # Class of committed instruction (Count)
system.cpu.commit.committedInstType_0::SimdSqrt            0      0.00%     81.41% # Class of committed instruction (Count)
system.cpu.commit.committedInstType_0::SimdFloatAdd            0      0.00%     81.41% # Class of committed instruction (Count)
system.cpu.commit.committedInstType_0::SimdFloatAlu            0      0.00%     81.41% # Class of committed instruction (Count)
system.cpu.commit.committedInstType_0::SimdFloatCmp            0      0.00%     81.41% # Class of committed instruction (Count)
system.cpu.commit.committedInstType_0::SimdFloatCvt            0      0.00%     81.41% # Class of committed instruction (Count)
system.cpu.commit.committedInstType_0::SimdFloatDiv            0      0.00%     81.41% # Class of committed instruction (Count)
system.cpu.commit.committedInstType_0::SimdFloatMisc            0      0.00%     81.41% # Class of committed instruction (Count)
system.cpu.commit.committedInstType_0::SimdFloatMult            0      0.00%     81.41% # Class of committed instruction (Count)
system.cpu.commit.committedInstType_0::SimdFloatMultAcc            0      0.00%     81.41% # Class of committed instruction (Count)
system.cpu.commit.committedInstType_0::SimdFloatSqrt            0      0.00%     81.41% # Class of committed instruction (Count)
system.cpu.commit.committedInstType_0::SimdReduceAdd            0      0.00%     81.41% # Class of committed instruction (Count)
system.cpu.commit.committedInstType_0::SimdReduceAlu            0      0.00%     81.41% # Class of committed instruction (Count)
system.cpu.commit.committedInstType_0::SimdReduceCmp            0      0.00%     81.41% # Class of committed instruction (Count)
system.cpu.commit.committedInstType_0::SimdFloatReduceAdd            0      0.00%     81.41% # Class of committed instruction (Count)
system.cpu.commit.committedInstType_0::SimdFloatReduceCmp            0      0.00%     81.41% # Class of committed instruction (Count)
system.cpu.commit.committedInstType_0::SimdAes            0      0.00%     81.41% # Class of committed instruction (Count)
system.cpu.commit.committedInstType_0::SimdAesMix            0      0.00%     81.41% # Class of committed instruction (Count)
system.cpu.commit.committedInstType_0::SimdSha1Hash            0      0.00%     81.41% # Class of committed instruction (Count)
system.cpu.commit.committedInstType_0::SimdSha1Hash2            0      0.00%     81.41% # Class of committed instruction (Count)
system.cpu.commit.committedInstType_0::SimdSha256Hash            0      0.00%     81.41% # Class of committed instruction (Count)
system.cpu.commit.committedInstType_0::SimdSha256Hash2            0      0.00%     81.41% # Class of committed instruction (Count)
system.cpu.commit.committedInstType_0::SimdShaSigma2            0      0.00%     81.41% # Class of committed instruction (Count)
system.cpu.commit.committedInstType_0::SimdShaSigma3            0      0.00%     81.41% # Class of committed instruction (Count)
system.cpu.commit.committedInstType_0::SimdPredAlu            0      0.00%     81.41% # Class of committed instruction (Count)
system.cpu.commit.committedInstType_0::MemRead     10539956     11.12%     92.53% # Class of committed instruction (Count)
system.cpu.commit.committedInstType_0::MemWrite      6962802      7.35%     99.88% # Class of committed instruction (Count)
system.cpu.commit.committedInstType_0::FloatMemRead       113404      0.12%    100.00% # Class of committed instruction (Count)
system.cpu.commit.committedInstType_0::FloatMemWrite          240      0.00%    100.00% # Class of committed instruction (Count)
system.cpu.commit.committedInstType_0::IprAccess            0      0.00%    100.00% # Class of committed instruction (Count)
system.cpu.commit.committedInstType_0::InstPrefetch            0      0.00%    100.00% # Class of committed instruction (Count)
system.cpu.commit.committedInstType_0::total     94757854                       # Class of committed instruction (Count)
system.cpu.commit.commitEligibleSamples       5209552                       # number cycles where commit BW limit reached (Cycle)
system.cpu.dcache.demandHits::cpu.data       18361123                       # number of demand (read+write) hits (Count)
system.cpu.dcache.demandHits::total          18361123                       # number of demand (read+write) hits (Count)
system.cpu.dcache.overallHits::cpu.data      18361123                       # number of overall hits (Count)
system.cpu.dcache.overallHits::total         18361123                       # number of overall hits (Count)
system.cpu.dcache.demandMisses::cpu.data        84541                       # number of demand (read+write) misses (Count)
system.cpu.dcache.demandMisses::total           84541                       # number of demand (read+write) misses (Count)
system.cpu.dcache.overallMisses::cpu.data        84541                       # number of overall misses (Count)
system.cpu.dcache.overallMisses::total          84541                       # number of overall misses (Count)
system.cpu.dcache.demandMissLatency::cpu.data   6823120999                       # number of demand (read+write) miss ticks (Tick)
system.cpu.dcache.demandMissLatency::total   6823120999                       # number of demand (read+write) miss ticks (Tick)
system.cpu.dcache.overallMissLatency::cpu.data   6823120999                       # number of overall miss ticks (Tick)
system.cpu.dcache.overallMissLatency::total   6823120999                       # number of overall miss ticks (Tick)
system.cpu.dcache.demandAccesses::cpu.data     18445664                       # number of demand (read+write) accesses (Count)
system.cpu.dcache.demandAccesses::total      18445664                       # number of demand (read+write) accesses (Count)
system.cpu.dcache.overallAccesses::cpu.data     18445664                       # number of overall (read+write) accesses (Count)
system.cpu.dcache.overallAccesses::total     18445664                       # number of overall (read+write) accesses (Count)
system.cpu.dcache.demandMissRate::cpu.data     0.004583                       # miss rate for demand accesses (Ratio)
system.cpu.dcache.demandMissRate::total      0.004583                       # miss rate for demand accesses (Ratio)
system.cpu.dcache.overallMissRate::cpu.data     0.004583                       # miss rate for overall accesses (Ratio)
system.cpu.dcache.overallMissRate::total     0.004583                       # miss rate for overall accesses (Ratio)
system.cpu.dcache.demandAvgMissLatency::cpu.data 80707.834057                       # average overall miss latency in ticks ((Tick/Count))
system.cpu.dcache.demandAvgMissLatency::total 80707.834057                       # average overall miss latency in ticks ((Tick/Count))
system.cpu.dcache.overallAvgMissLatency::cpu.data 80707.834057                       # average overall miss latency ((Tick/Count))
system.cpu.dcache.overallAvgMissLatency::total 80707.834057                       # average overall miss latency ((Tick/Count))
system.cpu.dcache.blockedCycles::no_mshrs         1536                       # number of cycles access was blocked (Cycle)
system.cpu.dcache.blockedCycles::no_targets            0                       # number of cycles access was blocked (Cycle)
system.cpu.dcache.blockedCauses::no_mshrs           53                       # number of times access was blocked (Count)
system.cpu.dcache.blockedCauses::no_targets            0                       # number of times access was blocked (Count)
system.cpu.dcache.avgBlocked::no_mshrs      28.981132                       # average number of cycles each access was blocked ((Cycle/Count))
system.cpu.dcache.avgBlocked::no_targets          nan                       # average number of cycles each access was blocked ((Cycle/Count))
system.cpu.dcache.writebacks::writebacks        64161                       # number of writebacks (Count)
system.cpu.dcache.writebacks::total             64161                       # number of writebacks (Count)
system.cpu.dcache.demandMshrHits::cpu.data        14741                       # number of demand (read+write) MSHR hits (Count)
system.cpu.dcache.demandMshrHits::total         14741                       # number of demand (read+write) MSHR hits (Count)
system.cpu.dcache.overallMshrHits::cpu.data        14741                       # number of overall MSHR hits (Count)
system.cpu.dcache.overallMshrHits::total        14741                       # number of overall MSHR hits (Count)
system.cpu.dcache.demandMshrMisses::cpu.data        69800                       # number of demand (read+write) MSHR misses (Count)
system.cpu.dcache.demandMshrMisses::total        69800                       # number of demand (read+write) MSHR misses (Count)
system.cpu.dcache.overallMshrMisses::cpu.data        69800                       # number of overall MSHR misses (Count)
system.cpu.dcache.overallMshrMisses::total        69800                       # number of overall MSHR misses (Count)
system.cpu.dcache.demandMshrMissLatency::cpu.data   6152262999                       # number of demand (read+write) MSHR miss ticks (Tick)
system.cpu.dcache.demandMshrMissLatency::total   6152262999                       # number of demand (read+write) MSHR miss ticks (Tick)
system.cpu.dcache.overallMshrMissLatency::cpu.data   6152262999                       # number of overall MSHR miss ticks (Tick)
system.cpu.dcache.overallMshrMissLatency::total   6152262999                       # number of overall MSHR miss ticks (Tick)
system.cpu.dcache.demandMshrMissRate::cpu.data     0.003784                       # mshr miss ratio for demand accesses (Ratio)
system.cpu.dcache.demandMshrMissRate::total     0.003784                       # mshr miss ratio for demand accesses (Ratio)
system.cpu.dcache.overallMshrMissRate::cpu.data     0.003784                       # mshr miss ratio for overall accesses (Ratio)
system.cpu.dcache.overallMshrMissRate::total     0.003784                       # mshr miss ratio for overall accesses (Ratio)
system.cpu.dcache.demandAvgMshrMissLatency::cpu.data 88141.303711                       # average overall mshr miss latency ((Tick/Count))
system.cpu.dcache.demandAvgMshrMissLatency::total 88141.303711                       # average overall mshr miss latency ((Tick/Count))
system.cpu.dcache.overallAvgMshrMissLatency::cpu.data 88141.303711                       # average overall mshr miss latency ((Tick/Count))
system.cpu.dcache.overallAvgMshrMissLatency::total 88141.303711                       # average overall mshr miss latency ((Tick/Count))
system.cpu.dcache.replacements                  69288                       # number of replacements (Count)
system.cpu.dcache.LockedRMWReadReq.hits::cpu.data           12                       # number of LockedRMWReadReq hits (Count)
system.cpu.dcache.LockedRMWReadReq.hits::total           12                       # number of LockedRMWReadReq hits (Count)
system.cpu.dcache.LockedRMWReadReq.accesses::cpu.data           12                       # number of LockedRMWReadReq accesses(hits+misses) (Count)
system.cpu.dcache.LockedRMWReadReq.accesses::total           12                       # number of LockedRMWReadReq accesses(hits+misses) (Count)
system.cpu.dcache.LockedRMWReadReq.mshrMissLatency::cpu.data       114000                       # number of LockedRMWReadReq MSHR miss ticks (Tick)
system.cpu.dcache.LockedRMWReadReq.mshrMissLatency::total       114000                       # number of LockedRMWReadReq MSHR miss ticks (Tick)
system.cpu.dcache.LockedRMWReadReq.avgMshrMissLatency::cpu.data          inf                       # average LockedRMWReadReq mshr miss latency ((Tick/Count))
system.cpu.dcache.LockedRMWReadReq.avgMshrMissLatency::total          inf                       # average LockedRMWReadReq mshr miss latency ((Tick/Count))
system.cpu.dcache.LockedRMWWriteReq.hits::cpu.data           12                       # number of LockedRMWWriteReq hits (Count)
system.cpu.dcache.LockedRMWWriteReq.hits::total           12                       # number of LockedRMWWriteReq hits (Count)
system.cpu.dcache.LockedRMWWriteReq.accesses::cpu.data           12                       # number of LockedRMWWriteReq accesses(hits+misses) (Count)
system.cpu.dcache.LockedRMWWriteReq.accesses::total           12                       # number of LockedRMWWriteReq accesses(hits+misses) (Count)
system.cpu.dcache.ReadReq.hits::cpu.data     11449442                       # number of ReadReq hits (Count)
system.cpu.dcache.ReadReq.hits::total        11449442                       # number of ReadReq hits (Count)
system.cpu.dcache.ReadReq.misses::cpu.data        33217                       # number of ReadReq misses (Count)
system.cpu.dcache.ReadReq.misses::total         33217                       # number of ReadReq misses (Count)
system.cpu.dcache.ReadReq.missLatency::cpu.data   1832147000                       # number of ReadReq miss ticks (Tick)
system.cpu.dcache.ReadReq.missLatency::total   1832147000                       # number of ReadReq miss ticks (Tick)
system.cpu.dcache.ReadReq.accesses::cpu.data     11482659                       # number of ReadReq accesses(hits+misses) (Count)
system.cpu.dcache.ReadReq.accesses::total     11482659                       # number of ReadReq accesses(hits+misses) (Count)
system.cpu.dcache.ReadReq.missRate::cpu.data     0.002893                       # miss rate for ReadReq accesses (Ratio)
system.cpu.dcache.ReadReq.missRate::total     0.002893                       # miss rate for ReadReq accesses (Ratio)
system.cpu.dcache.ReadReq.avgMissLatency::cpu.data 55156.907608                       # average ReadReq miss latency ((Tick/Count))
system.cpu.dcache.ReadReq.avgMissLatency::total 55156.907608                       # average ReadReq miss latency ((Tick/Count))
system.cpu.dcache.ReadReq.mshrHits::cpu.data        10999                       # number of ReadReq MSHR hits (Count)
system.cpu.dcache.ReadReq.mshrHits::total        10999                       # number of ReadReq MSHR hits (Count)
system.cpu.dcache.ReadReq.mshrMisses::cpu.data        22218                       # number of ReadReq MSHR misses (Count)
system.cpu.dcache.ReadReq.mshrMisses::total        22218                       # number of ReadReq MSHR misses (Count)
system.cpu.dcache.ReadReq.mshrMissLatency::cpu.data   1357660000                       # number of ReadReq MSHR miss ticks (Tick)
system.cpu.dcache.ReadReq.mshrMissLatency::total   1357660000                       # number of ReadReq MSHR miss ticks (Tick)
system.cpu.dcache.ReadReq.mshrMissRate::cpu.data     0.001935                       # mshr miss rate for ReadReq accesses (Ratio)
system.cpu.dcache.ReadReq.mshrMissRate::total     0.001935                       # mshr miss rate for ReadReq accesses (Ratio)
system.cpu.dcache.ReadReq.avgMshrMissLatency::cpu.data 61106.310199                       # average ReadReq mshr miss latency ((Tick/Count))
system.cpu.dcache.ReadReq.avgMshrMissLatency::total 61106.310199                       # average ReadReq mshr miss latency ((Tick/Count))
system.cpu.dcache.WriteReq.hits::cpu.data      6911681                       # number of WriteReq hits (Count)
system.cpu.dcache.WriteReq.hits::total        6911681                       # number of WriteReq hits (Count)
system.cpu.dcache.WriteReq.misses::cpu.data        51324                       # number of WriteReq misses (Count)
system.cpu.dcache.WriteReq.misses::total        51324                       # number of WriteReq misses (Count)
system.cpu.dcache.WriteReq.missLatency::cpu.data   4990973999                       # number of WriteReq miss ticks (Tick)
system.cpu.dcache.WriteReq.missLatency::total   4990973999                       # number of WriteReq miss ticks (Tick)
system.cpu.dcache.WriteReq.accesses::cpu.data      6963005                       # number of WriteReq accesses(hits+misses) (Count)
system.cpu.dcache.WriteReq.accesses::total      6963005                       # number of WriteReq accesses(hits+misses) (Count)
system.cpu.dcache.WriteReq.missRate::cpu.data     0.007371                       # miss rate for WriteReq accesses (Ratio)
system.cpu.dcache.WriteReq.missRate::total     0.007371                       # miss rate for WriteReq accesses (Ratio)
system.cpu.dcache.WriteReq.avgMissLatency::cpu.data 97244.447023                       # average WriteReq miss latency ((Tick/Count))
system.cpu.dcache.WriteReq.avgMissLatency::total 97244.447023                       # average WriteReq miss latency ((Tick/Count))
system.cpu.dcache.WriteReq.mshrHits::cpu.data         3742                       # number of WriteReq MSHR hits (Count)
system.cpu.dcache.WriteReq.mshrHits::total         3742                       # number of WriteReq MSHR hits (Count)
system.cpu.dcache.WriteReq.mshrMisses::cpu.data        47582                       # number of WriteReq MSHR misses (Count)
system.cpu.dcache.WriteReq.mshrMisses::total        47582                       # number of WriteReq MSHR misses (Count)
system.cpu.dcache.WriteReq.mshrMissLatency::cpu.data   4794602999                       # number of WriteReq MSHR miss ticks (Tick)
system.cpu.dcache.WriteReq.mshrMissLatency::total   4794602999                       # number of WriteReq MSHR miss ticks (Tick)
system.cpu.dcache.WriteReq.mshrMissRate::cpu.data     0.006834                       # mshr miss rate for WriteReq accesses (Ratio)
system.cpu.dcache.WriteReq.mshrMissRate::total     0.006834                       # mshr miss rate for WriteReq accesses (Ratio)
system.cpu.dcache.WriteReq.avgMshrMissLatency::cpu.data 100765.058194                       # average WriteReq mshr miss latency ((Tick/Count))
system.cpu.dcache.WriteReq.avgMshrMissLatency::total 100765.058194                       # average WriteReq mshr miss latency ((Tick/Count))
system.cpu.dcache.power_state.pwrStateResidencyTicks::UNDEFINED  41352606000                       # Cumulative time (in ticks) in various power states (Tick)
system.cpu.dcache.tags.tagsInUse           511.171628                       # Average ticks per tags in use ((Tick/Count))
system.cpu.dcache.tags.totalRefs             18430947                       # Total number of references to valid blocks. (Count)
system.cpu.dcache.tags.sampledRefs              69800                       # Sample count of references to valid blocks. (Count)
system.cpu.dcache.tags.avgRefs             264.053682                       # Average number of references to valid blocks. ((Count/Count))
system.cpu.dcache.tags.warmupTick              222000                       # The tick when the warmup percentage was hit. (Tick)
system.cpu.dcache.tags.occupancies::cpu.data   511.171628                       # Average occupied blocks per tick, per requestor ((Count/Tick))
system.cpu.dcache.tags.avgOccs::cpu.data     0.998382                       # Average percentage of cache occupancy ((Ratio/Tick))
system.cpu.dcache.tags.avgOccs::total        0.998382                       # Average percentage of cache occupancy ((Ratio/Tick))
system.cpu.dcache.tags.occupanciesTaskId::1024          512                       # Occupied blocks per task id (Count)
system.cpu.dcache.tags.ageTaskId_1024::0           10                       # Occupied blocks per task id, per block age (Count)
system.cpu.dcache.tags.ageTaskId_1024::1           95                       # Occupied blocks per task id, per block age (Count)
system.cpu.dcache.tags.ageTaskId_1024::2          333                       # Occupied blocks per task id, per block age (Count)
system.cpu.dcache.tags.ageTaskId_1024::3           33                       # Occupied blocks per task id, per block age (Count)
system.cpu.dcache.tags.ageTaskId_1024::4           41                       # Occupied blocks per task id, per block age (Count)
system.cpu.dcache.tags.ratioOccsTaskId::1024            1                       # Ratio of occupied blocks and all blocks, per task id (Ratio)
system.cpu.dcache.tags.tagAccesses           73852552                       # Number of tag accesses (Count)
system.cpu.dcache.tags.dataAccesses          73852552                       # Number of data accesses (Count)
system.cpu.dcache.tags.power_state.pwrStateResidencyTicks::UNDEFINED  41352606000                       # Cumulative time (in ticks) in various power states (Tick)
system.cpu.decode.idleCycles                 10531398                       # Number of cycles decode is idle (Cycle)
system.cpu.decode.blockedCycles               7909283                       # Number of cycles decode is blocked (Cycle)
system.cpu.decode.runCycles                  20741578                       # Number of cycles decode is running (Cycle)
system.cpu.decode.unblockCycles               1083702                       # Number of cycles decode is unblocking (Cycle)
system.cpu.decode.squashCycles                1059987                       # Number of cycles decode is squashing (Cycle)
system.cpu.decode.branchResolved              5400206                       # Number of times decode resolved a branch (Count)
system.cpu.decode.branchMispred                  2566                       # Number of times decode detected a branch misprediction (Count)
system.cpu.decode.decodedInsts              146323461                       # Number of instructions handled by decode (Count)
system.cpu.decode.squashedInsts                 10333                       # Number of squashed instructions handled by decode (Count)
system.cpu.fetch.icacheStallCycles           12131667                       # Number of cycles fetch is stalled on an Icache miss (Cycle)
system.cpu.fetch.insts                       80291688                       # Number of instructions fetch has processed (Count)
system.cpu.fetch.branches                    18745152                       # Number of branches that fetch encountered (Count)
system.cpu.fetch.predictedBranches            6806956                       # Number of branches that fetch has predicted taken (Count)
system.cpu.fetch.cycles                      28126383                       # Number of cycles fetch has run and was not squashing or blocked (Cycle)
system.cpu.fetch.squashCycles                 2125060                       # Number of cycles fetch has spent squashing (Cycle)
system.cpu.fetch.miscStallCycles                  434                       # Number of cycles fetch has spent waiting on interrupts, or bad addresses, or out of MSHRs (Cycle)
system.cpu.fetch.pendingTrapStallCycles          4934                       # Number of stall cycles due to pending traps (Cycle)
system.cpu.fetch.cacheLines                  11469727                       # Number of cache lines fetched (Count)
system.cpu.fetch.icacheSquashes                271547                       # Number of outstanding Icache misses that were squashed (Count)
system.cpu.fetch.nisnDist::samples           41325948                       # Number of instructions fetched each cycle (Total) (Count)
system.cpu.fetch.nisnDist::mean              3.707202                       # Number of instructions fetched each cycle (Total) (Count)
system.cpu.fetch.nisnDist::stdev             3.611335                       # Number of instructions fetched each cycle (Total) (Count)
system.cpu.fetch.nisnDist::underflows               0      0.00%      0.00% # Number of instructions fetched each cycle (Total) (Count)
system.cpu.fetch.nisnDist::0                 17118294     41.42%     41.42% # Number of instructions fetched each cycle (Total) (Count)
system.cpu.fetch.nisnDist::1                  1244995      3.01%     44.44% # Number of instructions fetched each cycle (Total) (Count)
system.cpu.fetch.nisnDist::2                  1667437      4.03%     48.47% # Number of instructions fetched each cycle (Total) (Count)
system.cpu.fetch.nisnDist::3                  1824786      4.42%     52.89% # Number of instructions fetched each cycle (Total) (Count)
system.cpu.fetch.nisnDist::4                  1190568      2.88%     55.77% # Number of instructions fetched each cycle (Total) (Count)
system.cpu.fetch.nisnDist::5                  1565906      3.79%     59.56% # Number of instructions fetched each cycle (Total) (Count)
system.cpu.fetch.nisnDist::6                  1001169      2.42%     61.98% # Number of instructions fetched each cycle (Total) (Count)
system.cpu.fetch.nisnDist::7                  1151760      2.79%     64.77% # Number of instructions fetched each cycle (Total) (Count)
system.cpu.fetch.nisnDist::8                 14561033     35.23%    100.00% # Number of instructions fetched each cycle (Total) (Count)
system.cpu.fetch.nisnDist::overflows                0      0.00%    100.00% # Number of instructions fetched each cycle (Total) (Count)
system.cpu.fetch.nisnDist::min_value                0                       # Number of instructions fetched each cycle (Total) (Count)
system.cpu.fetch.nisnDist::max_value                8                       # Number of instructions fetched each cycle (Total) (Count)
system.cpu.fetch.nisnDist::total             41325948                       # Number of instructions fetched each cycle (Total) (Count)
system.cpu.fetch.branchRate                  0.453300                       # Number of branch fetches per cycle (Ratio)
system.cpu.fetch.rate                        1.941635                       # Number of inst fetches per cycle ((Count/Cycle))
system.cpu.icache.demandHits::cpu.inst       11468720                       # number of demand (read+write) hits (Count)
system.cpu.icache.demandHits::total          11468720                       # number of demand (read+write) hits (Count)
system.cpu.icache.overallHits::cpu.inst      11468720                       # number of overall hits (Count)
system.cpu.icache.overallHits::total         11468720                       # number of overall hits (Count)
system.cpu.icache.demandMisses::cpu.inst         1007                       # number of demand (read+write) misses (Count)
system.cpu.icache.demandMisses::total            1007                       # number of demand (read+write) misses (Count)
system.cpu.icache.overallMisses::cpu.inst         1007                       # number of overall misses (Count)
system.cpu.icache.overallMisses::total           1007                       # number of overall misses (Count)
system.cpu.icache.demandMissLatency::cpu.inst     81970000                       # number of demand (read+write) miss ticks (Tick)
system.cpu.icache.demandMissLatency::total     81970000                       # number of demand (read+write) miss ticks (Tick)
system.cpu.icache.overallMissLatency::cpu.inst     81970000                       # number of overall miss ticks (Tick)
system.cpu.icache.overallMissLatency::total     81970000                       # number of overall miss ticks (Tick)
system.cpu.icache.demandAccesses::cpu.inst     11469727                       # number of demand (read+write) accesses (Count)
system.cpu.icache.demandAccesses::total      11469727                       # number of demand (read+write) accesses (Count)
system.cpu.icache.overallAccesses::cpu.inst     11469727                       # number of overall (read+write) accesses (Count)
system.cpu.icache.overallAccesses::total     11469727                       # number of overall (read+write) accesses (Count)
system.cpu.icache.demandMissRate::cpu.inst     0.000088                       # miss rate for demand accesses (Ratio)
system.cpu.icache.demandMissRate::total      0.000088                       # miss rate for demand accesses (Ratio)
system.cpu.icache.overallMissRate::cpu.inst     0.000088                       # miss rate for overall accesses (Ratio)
system.cpu.icache.overallMissRate::total     0.000088                       # miss rate for overall accesses (Ratio)
system.cpu.icache.demandAvgMissLatency::cpu.inst 81400.198610                       # average overall miss latency in ticks ((Tick/Count))
system.cpu.icache.demandAvgMissLatency::total 81400.198610                       # average overall miss latency in ticks ((Tick/Count))
system.cpu.icache.overallAvgMissLatency::cpu.inst 81400.198610                       # average overall miss latency ((Tick/Count))
system.cpu.icache.overallAvgMissLatency::total 81400.198610                       # average overall miss latency ((Tick/Count))
system.cpu.icache.blockedCycles::no_mshrs           43                       # number of cycles access was blocked (Cycle)
system.cpu.icache.blockedCycles::no_targets            0                       # number of cycles access was blocked (Cycle)
system.cpu.icache.blockedCauses::no_mshrs            2                       # number of times access was blocked (Count)
system.cpu.icache.blockedCauses::no_targets            0                       # number of times access was blocked (Count)
system.cpu.icache.avgBlocked::no_mshrs      21.500000                       # average number of cycles each access was blocked ((Cycle/Count))
system.cpu.icache.avgBlocked::no_targets          nan                       # average number of cycles each access was blocked ((Cycle/Count))
system.cpu.icache.demandMshrHits::cpu.inst          177                       # number of demand (read+write) MSHR hits (Count)
system.cpu.icache.demandMshrHits::total           177                       # number of demand (read+write) MSHR hits (Count)
system.cpu.icache.overallMshrHits::cpu.inst          177                       # number of overall MSHR hits (Count)
system.cpu.icache.overallMshrHits::total          177                       # number of overall MSHR hits (Count)
system.cpu.icache.demandMshrMisses::cpu.inst          830                       # number of demand (read+write) MSHR misses (Count)
system.cpu.icache.demandMshrMisses::total          830                       # number of demand (read+write) MSHR misses (Count)
system.cpu.icache.overallMshrMisses::cpu.inst          830                       # number of overall MSHR misses (Count)
system.cpu.icache.overallMshrMisses::total          830                       # number of overall MSHR misses (Count)
system.cpu.icache.demandMshrMissLatency::cpu.inst     67302000                       # number of demand (read+write) MSHR miss ticks (Tick)
system.cpu.icache.demandMshrMissLatency::total     67302000                       # number of demand (read+write) MSHR miss ticks (Tick)
system.cpu.icache.overallMshrMissLatency::cpu.inst     67302000                       # number of overall MSHR miss ticks (Tick)
system.cpu.icache.overallMshrMissLatency::total     67302000                       # number of overall MSHR miss ticks (Tick)
system.cpu.icache.demandMshrMissRate::cpu.inst     0.000072                       # mshr miss ratio for demand accesses (Ratio)
system.cpu.icache.demandMshrMissRate::total     0.000072                       # mshr miss ratio for demand accesses (Ratio)
system.cpu.icache.overallMshrMissRate::cpu.inst     0.000072                       # mshr miss ratio for overall accesses (Ratio)
system.cpu.icache.overallMshrMissRate::total     0.000072                       # mshr miss ratio for overall accesses (Ratio)
system.cpu.icache.demandAvgMshrMissLatency::cpu.inst 81086.746988                       # average overall mshr miss latency ((Tick/Count))
system.cpu.icache.demandAvgMshrMissLatency::total 81086.746988                       # average overall mshr miss latency ((Tick/Count))
system.cpu.icache.overallAvgMshrMissLatency::cpu.inst 81086.746988                       # average overall mshr miss latency ((Tick/Count))
system.cpu.icache.overallAvgMshrMissLatency::total 81086.746988                       # average overall mshr miss latency ((Tick/Count))
system.cpu.icache.replacements                    397                       # number of replacements (Count)
system.cpu.icache.ReadReq.hits::cpu.inst     11468720                       # number of ReadReq hits (Count)
system.cpu.icache.ReadReq.hits::total        11468720                       # number of ReadReq hits (Count)
system.cpu.icache.ReadReq.misses::cpu.inst         1007                       # number of ReadReq misses (Count)
system.cpu.icache.ReadReq.misses::total          1007                       # number of ReadReq misses (Count)
system.cpu.icache.ReadReq.missLatency::cpu.inst     81970000                       # number of ReadReq miss ticks (Tick)
system.cpu.icache.ReadReq.missLatency::total     81970000                       # number of ReadReq miss ticks (Tick)
system.cpu.icache.ReadReq.accesses::cpu.inst     11469727                       # number of ReadReq accesses(hits+misses) (Count)
system.cpu.icache.ReadReq.accesses::total     11469727                       # number of ReadReq accesses(hits+misses) (Count)
system.cpu.icache.ReadReq.missRate::cpu.inst     0.000088                       # miss rate for ReadReq accesses (Ratio)
system.cpu.icache.ReadReq.missRate::total     0.000088                       # miss rate for ReadReq accesses (Ratio)
system.cpu.icache.ReadReq.avgMissLatency::cpu.inst 81400.198610                       # average ReadReq miss latency ((Tick/Count))
system.cpu.icache.ReadReq.avgMissLatency::total 81400.198610                       # average ReadReq miss latency ((Tick/Count))
system.cpu.icache.ReadReq.mshrHits::cpu.inst          177                       # number of ReadReq MSHR hits (Count)
system.cpu.icache.ReadReq.mshrHits::total          177                       # number of ReadReq MSHR hits (Count)
system.cpu.icache.ReadReq.mshrMisses::cpu.inst          830                       # number of ReadReq MSHR misses (Count)
system.cpu.icache.ReadReq.mshrMisses::total          830                       # number of ReadReq MSHR misses (Count)
system.cpu.icache.ReadReq.mshrMissLatency::cpu.inst     67302000                       # number of ReadReq MSHR miss ticks (Tick)
system.cpu.icache.ReadReq.mshrMissLatency::total     67302000                       # number of ReadReq MSHR miss ticks (Tick)
system.cpu.icache.ReadReq.mshrMissRate::cpu.inst     0.000072                       # mshr miss rate for ReadReq accesses (Ratio)
system.cpu.icache.ReadReq.mshrMissRate::total     0.000072                       # mshr miss rate for ReadReq accesses (Ratio)
system.cpu.icache.ReadReq.avgMshrMissLatency::cpu.inst 81086.746988                       # average ReadReq mshr miss latency ((Tick/Count))
system.cpu.icache.ReadReq.avgMshrMissLatency::total 81086.746988                       # average ReadReq mshr miss latency ((Tick/Count))
system.cpu.icache.power_state.pwrStateResidencyTicks::UNDEFINED  41352606000                       # Cumulative time (in ticks) in various power states (Tick)
system.cpu.icache.tags.tagsInUse           430.928551                       # Average ticks per tags in use ((Tick/Count))
system.cpu.icache.tags.totalRefs             11469550                       # Total number of references to valid blocks. (Count)
system.cpu.icache.tags.sampledRefs                830                       # Sample count of references to valid blocks. (Count)
system.cpu.icache.tags.avgRefs           13818.734940                       # Average number of references to valid blocks. ((Count/Count))
system.cpu.icache.tags.warmupTick              107000                       # The tick when the warmup percentage was hit. (Tick)
system.cpu.icache.tags.occupancies::cpu.inst   430.928551                       # Average occupied blocks per tick, per requestor ((Count/Tick))
system.cpu.icache.tags.avgOccs::cpu.inst     0.841657                       # Average percentage of cache occupancy ((Ratio/Tick))
system.cpu.icache.tags.avgOccs::total        0.841657                       # Average percentage of cache occupancy ((Ratio/Tick))
system.cpu.icache.tags.occupanciesTaskId::1024          433                       # Occupied blocks per task id (Count)
system.cpu.icache.tags.ageTaskId_1024::2            4                       # Occupied blocks per task id, per block age (Count)
system.cpu.icache.tags.ageTaskId_1024::4          429                       # Occupied blocks per task id, per block age (Count)
system.cpu.icache.tags.ratioOccsTaskId::1024     0.845703                       # Ratio of occupied blocks and all blocks, per task id (Ratio)
system.cpu.icache.tags.tagAccesses           22940284                       # Number of tag accesses (Count)
system.cpu.icache.tags.dataAccesses          22940284                       # Number of data accesses (Count)
system.cpu.icache.tags.power_state.pwrStateResidencyTicks::UNDEFINED  41352606000                       # Cumulative time (in ticks) in various power states (Tick)
system.cpu.iew.idleCycles                           0                       # Number of cycles IEW is idle (Cycle)
system.cpu.iew.squashCycles                   1059987                       # Number of cycles IEW is squashing (Cycle)
system.cpu.iew.blockCycles                    4145915                       # Number of cycles IEW is blocking (Cycle)
system.cpu.iew.unblockCycles                   992349                       # Number of cycles IEW is unblocking (Cycle)
system.cpu.iew.dispatchedInsts              131902481                       # Number of instructions dispatched to IQ (Count)
system.cpu.iew.dispSquashedInsts                18920                       # Number of squashed instructions skipped by dispatch (Count)
system.cpu.iew.dispLoadInsts                 15707807                       # Number of dispatched load instructions (Count)
system.cpu.iew.dispStoreInsts                 8826181                       # Number of dispatched store instructions (Count)
system.cpu.iew.dispNonSpecInsts                 28863                       # Number of dispatched non-speculative instructions (Count)
system.cpu.iew.iqFullEvents                        20                       # Number of times the IQ has become full, causing a stall (Count)
system.cpu.iew.lsqFullEvents                   987244                       # Number of times the LSQ has become full, causing a stall (Count)
system.cpu.iew.memOrderViolationEvents           3290                       # Number of memory order violations (Count)
system.cpu.iew.predictedTakenIncorrect         390581                       # Number of branches that were predicted taken incorrectly (Count)
system.cpu.iew.predictedNotTakenIncorrect       846739                       # Number of branches that were predicted not taken incorrectly (Count)
system.cpu.iew.branchMispredicts              1237320                       # Number of branch mispredicts detected at execute (Count)
system.cpu.iew.instsToCommit                117694208                       # Cumulative count of insts sent to commit (Count)
system.cpu.iew.writebackCount               117230330                       # Cumulative count of insts written-back (Count)
system.cpu.iew.producerInst                  84142402                       # Number of instructions producing a value (Count)
system.cpu.iew.consumerInst                 131757496                       # Number of instructions consuming a value (Count)
system.cpu.iew.wbRate                        2.834896                       # Insts written-back per cycle ((Count/Cycle))
system.cpu.iew.wbFanout                      0.638616                       # Average fanout of values written-back ((Count/Count))
system.cpu.interrupts.clk_domain.clock          16000                       # Clock period in ticks (Tick)
system.cpu.lsq0.forwLoads                     2326720                       # Number of loads that had data forwarded from stores (Count)
system.cpu.lsq0.squashedLoads                 5054447                       # Number of loads squashed (Count)
system.cpu.lsq0.ignoredResponses               101559                       # Number of memory responses ignored because the instruction is squashed (Count)
system.cpu.lsq0.memOrderViolation                3290                       # Number of memory ordering violations (Count)
system.cpu.lsq0.squashedStores                1863136                       # Number of stores squashed (Count)
system.cpu.lsq0.rescheduledLoads                    0                       # Number of loads that were rescheduled (Count)
system.cpu.lsq0.blockedByCache                     46                       # Number of times an access to memory failed due to the cache being blocked (Count)
system.cpu.lsq0.loadToUse::samples           10653360                       # Distribution of cycle latency between the first time a load is issued and its completion (Unspecified)
system.cpu.lsq0.loadToUse::mean              3.218030                       # Distribution of cycle latency between the first time a load is issued and its completion (Unspecified)
system.cpu.lsq0.loadToUse::stdev             3.724542                       # Distribution of cycle latency between the first time a load is issued and its completion (Unspecified)
system.cpu.lsq0.loadToUse::0-9               10632314     99.80%     99.80% # Distribution of cycle latency between the first time a load is issued and its completion (Unspecified)
system.cpu.lsq0.loadToUse::10-19                  550      0.01%     99.81% # Distribution of cycle latency between the first time a load is issued and its completion (Unspecified)
system.cpu.lsq0.loadToUse::20-29                 6407      0.06%     99.87% # Distribution of cycle latency between the first time a load is issued and its completion (Unspecified)
system.cpu.lsq0.loadToUse::30-39                   31      0.00%     99.87% # Distribution of cycle latency between the first time a load is issued and its completion (Unspecified)
system.cpu.lsq0.loadToUse::40-49                  590      0.01%     99.87% # Distribution of cycle latency between the first time a load is issued and its completion (Unspecified)
system.cpu.lsq0.loadToUse::50-59                   18      0.00%     99.87% # Distribution of cycle latency between the first time a load is issued and its completion (Unspecified)
system.cpu.lsq0.loadToUse::60-69                  170      0.00%     99.88% # Distribution of cycle latency between the first time a load is issued and its completion (Unspecified)
system.cpu.lsq0.loadToUse::70-79                   35      0.00%     99.88% # Distribution of cycle latency between the first time a load is issued and its completion (Unspecified)
system.cpu.lsq0.loadToUse::80-89                 2205      0.02%     99.90% # Distribution of cycle latency between the first time a load is issued and its completion (Unspecified)
system.cpu.lsq0.loadToUse::90-99                 9052      0.08%     99.98% # Distribution of cycle latency between the first time a load is issued and its completion (Unspecified)
system.cpu.lsq0.loadToUse::100-109                 28      0.00%     99.98% # Distribution of cycle latency between the first time a load is issued and its completion (Unspecified)
system.cpu.lsq0.loadToUse::110-119               1443      0.01%    100.00% # Distribution of cycle latency between the first time a load is issued and its completion (Unspecified)
system.cpu.lsq0.loadToUse::120-129                160      0.00%    100.00% # Distribution of cycle latency between the first time a load is issued and its completion (Unspecified)
system.cpu.lsq0.loadToUse::130-139                 19      0.00%    100.00% # Distribution of cycle latency between the first time a load is issued and its completion (Unspecified)
system.cpu.lsq0.loadToUse::140-149                 13      0.00%    100.00% # Distribution of cycle latency between the first time a load is issued and its completion (Unspecified)
system.cpu.lsq0.loadToUse::150-159                 11      0.00%    100.00% # Distribution of cycle latency between the first time a load is issued and its completion (Unspecified)
system.cpu.lsq0.loadToUse::160-169                  8      0.00%    100.00% # Distribution of cycle latency between the first time a load is issued and its completion (Unspecified)
system.cpu.lsq0.loadToUse::170-179                 10      0.00%    100.00% # Distribution of cycle latency between the first time a load is issued and its completion (Unspecified)
system.cpu.lsq0.loadToUse::180-189                 11      0.00%    100.00% # Distribution of cycle latency between the first time a load is issued and its completion (Unspecified)
system.cpu.lsq0.loadToUse::190-199                 13      0.00%    100.00% # Distribution of cycle latency between the first time a load is issued and its completion (Unspecified)
system.cpu.lsq0.loadToUse::200-209                 14      0.00%    100.00% # Distribution of cycle latency between the first time a load is issued and its completion (Unspecified)
system.cpu.lsq0.loadToUse::210-219                  9      0.00%    100.00% # Distribution of cycle latency between the first time a load is issued and its completion (Unspecified)
system.cpu.lsq0.loadToUse::220-229                 10      0.00%    100.00% # Distribution of cycle latency between the first time a load is issued and its completion (Unspecified)
system.cpu.lsq0.loadToUse::230-239                 11      0.00%    100.00% # Distribution of cycle latency between the first time a load is issued and its completion (Unspecified)
[...]
system.mem_ctrl.dram.bytesWritten::total      1615296                       # Number of bytes written to this memory (Byte)
system.mem_ctrl.dram.numReads::cpu.inst           601                       # Number of read requests responded to by this memory (Count)
system.mem_ctrl.dram.numReads::cpu.data         58061                       # Number of read requests responded to by this memory (Count)
system.mem_ctrl.dram.numReads::total            58662                       # Number of read requests responded to by this memory (Count)
system.mem_ctrl.dram.numWrites::writebacks        25239                       # Number of write requests responded to by this memory (Count)
system.mem_ctrl.dram.numWrites::total           25239                       # Number of write requests responded to by this memory (Count)
system.mem_ctrl.dram.bwRead::cpu.inst          930147                       # Total read bandwidth from this memory ((Byte/Second))
system.mem_ctrl.dram.bwRead::cpu.data        89859004                       # Total read bandwidth from this memory ((Byte/Second))
system.mem_ctrl.dram.bwRead::total           90789151                       # Total read bandwidth from this memory ((Byte/Second))
system.mem_ctrl.dram.bwInstRead::cpu.inst       930147                       # Instruction read bandwidth from this memory ((Byte/Second))
system.mem_ctrl.dram.bwInstRead::total         930147                       # Instruction read bandwidth from this memory ((Byte/Second))
system.mem_ctrl.dram.bwWrite::writebacks     39061529                       # Write bandwidth from this memory ((Byte/Second))
system.mem_ctrl.dram.bwWrite::total          39061529                       # Write bandwidth from this memory ((Byte/Second))
system.mem_ctrl.dram.bwTotal::writebacks     39061529                       # Total bandwidth to/from this memory ((Byte/Second))
system.mem_ctrl.dram.bwTotal::cpu.inst         930147                       # Total bandwidth to/from this memory ((Byte/Second))
system.mem_ctrl.dram.bwTotal::cpu.data       89859004                       # Total bandwidth to/from this memory ((Byte/Second))
system.mem_ctrl.dram.bwTotal::total         129850680                       # Total bandwidth to/from this memory ((Byte/Second))
system.mem_ctrl.dram.readBursts                 58659                       # Number of DRAM read bursts (Count)
system.mem_ctrl.dram.writeBursts                25219                       # Number of DRAM write bursts (Count)
system.mem_ctrl.dram.perBankRdBursts::0          3691                       # Per bank write bursts (Count)
system.mem_ctrl.dram.perBankRdBursts::1          3678                       # Per bank write bursts (Count)
system.mem_ctrl.dram.perBankRdBursts::2          3735                       # Per bank write bursts (Count)
system.mem_ctrl.dram.perBankRdBursts::3          3652                       # Per bank write bursts (Count)
system.mem_ctrl.dram.perBankRdBursts::4          3673                       # Per bank write bursts (Count)
system.mem_ctrl.dram.perBankRdBursts::5          3704                       # Per bank write bursts (Count)
system.mem_ctrl.dram.perBankRdBursts::6          3722                       # Per bank write bursts (Count)
system.mem_ctrl.dram.perBankRdBursts::7          3568                       # Per bank write bursts (Count)
system.mem_ctrl.dram.perBankRdBursts::8          3625                       # Per bank write bursts (Count)
system.mem_ctrl.dram.perBankRdBursts::9          3536                       # Per bank write bursts (Count)
system.mem_ctrl.dram.perBankRdBursts::10         3718                       # Per bank write bursts (Count)
system.mem_ctrl.dram.perBankRdBursts::11         3657                       # Per bank write bursts (Count)
system.mem_ctrl.dram.perBankRdBursts::12         3663                       # Per bank write bursts (Count)
system.mem_ctrl.dram.perBankRdBursts::13         3722                       # Per bank write bursts (Count)
system.mem_ctrl.dram.perBankRdBursts::14         3649                       # Per bank write bursts (Count)
system.mem_ctrl.dram.perBankRdBursts::15         3666                       # Per bank write bursts (Count)
system.mem_ctrl.dram.perBankWrBursts::0          1582                       # Per bank write bursts (Count)
system.mem_ctrl.dram.perBankWrBursts::1          1606                       # Per bank write bursts (Count)
system.mem_ctrl.dram.perBankWrBursts::2          1651                       # Per bank write bursts (Count)
system.mem_ctrl.dram.perBankWrBursts::3          1594                       # Per bank write bursts (Count)
system.mem_ctrl.dram.perBankWrBursts::4          1613                       # Per bank write bursts (Count)
system.mem_ctrl.dram.perBankWrBursts::5          1602                       # Per bank write bursts (Count)
system.mem_ctrl.dram.perBankWrBursts::6          1615                       # Per bank write bursts (Count)
system.mem_ctrl.dram.perBankWrBursts::7          1462                       # Per bank write bursts (Count)
system.mem_ctrl.dram.perBankWrBursts::8          1515                       # Per bank write bursts (Count)
system.mem_ctrl.dram.perBankWrBursts::9          1461                       # Per bank write bursts (Count)
system.mem_ctrl.dram.perBankWrBursts::10         1600                       # Per bank write bursts (Count)
system.mem_ctrl.dram.perBankWrBursts::11         1546                       # Per bank write bursts (Count)
system.mem_ctrl.dram.perBankWrBursts::12         1586                       # Per bank write bursts (Count)
system.mem_ctrl.dram.perBankWrBursts::13         1606                       # Per bank write bursts (Count)
system.mem_ctrl.dram.perBankWrBursts::14         1582                       # Per bank write bursts (Count)
system.mem_ctrl.dram.perBankWrBursts::15         1598                       # Per bank write bursts (Count)
system.mem_ctrl.dram.totQLat                471413000                       # Total ticks spent queuing (Tick)
system.mem_ctrl.dram.totBusLat              293295000                       # Total ticks spent in databus transfers (Tick)
system.mem_ctrl.dram.totMemAccLat          1571269250                       # Total ticks spent from burst creation until serviced by the DRAM (Tick)
system.mem_ctrl.dram.avgQLat                  8036.50                       # Average queueing delay per DRAM burst ((Tick/Count))
system.mem_ctrl.dram.avgBusLat                5000.00                       # Average bus latency per DRAM burst ((Tick/Count))
system.mem_ctrl.dram.avgMemAccLat            26786.50                       # Average memory access latency per DRAM burst ((Tick/Count))
system.mem_ctrl.dram.readRowHits                48432                       # Number of row buffer hits during reads (Count)
system.mem_ctrl.dram.writeRowHits               21344                       # Number of row buffer hits during writes (Count)
system.mem_ctrl.dram.readRowHitRate             82.57                       # Row buffer hit rate for reads (Ratio)
system.mem_ctrl.dram.writeRowHitRate            84.63                       # Row buffer hit rate for writes (Ratio)
system.mem_ctrl.dram.bytesPerActivate::samples        14101                       # Bytes accessed per row activation (Byte)
system.mem_ctrl.dram.bytesPerActivate::mean   380.673144                       # Bytes accessed per row activation (Byte)
system.mem_ctrl.dram.bytesPerActivate::gmean   253.088272                       # Bytes accessed per row activation (Byte)
system.mem_ctrl.dram.bytesPerActivate::stdev   327.277207                       # Bytes accessed per row activation (Byte)
system.mem_ctrl.dram.bytesPerActivate::0-127         3145     22.30%     22.30% # Bytes accessed per row activation (Byte)
system.mem_ctrl.dram.bytesPerActivate::128-255         2345     16.63%     38.93% # Bytes accessed per row activation (Byte)
system.mem_ctrl.dram.bytesPerActivate::256-383         3995     28.33%     67.26% # Bytes accessed per row activation (Byte)
system.mem_ctrl.dram.bytesPerActivate::384-511          682      4.84%     72.10% # Bytes accessed per row activation (Byte)
system.mem_ctrl.dram.bytesPerActivate::512-639          872      6.18%     78.29% # Bytes accessed per row activation (Byte)
system.mem_ctrl.dram.bytesPerActivate::640-767          387      2.74%     81.03% # Bytes accessed per row activation (Byte)
system.mem_ctrl.dram.bytesPerActivate::768-895          311      2.21%     83.24% # Bytes accessed per row activation (Byte)
system.mem_ctrl.dram.bytesPerActivate::896-1023          534      3.79%     87.02% # Bytes accessed per row activation (Byte)
system.mem_ctrl.dram.bytesPerActivate::1024-1151         1830     12.98%    100.00% # Bytes accessed per row activation (Byte)
system.mem_ctrl.dram.bytesPerActivate::total        14101                       # Bytes accessed per row activation (Byte)
system.mem_ctrl.dram.bytesRead                3754176                       # Total bytes read (Byte)
system.mem_ctrl.dram.bytesWritten             1614016                       # Total bytes written (Byte)
system.mem_ctrl.dram.avgRdBW                90.784508                       # Average DRAM read bandwidth in MiBytes/s ((Byte/Second))
system.mem_ctrl.dram.avgWrBW                39.030575                       # Average DRAM write bandwidth in MiBytes/s ((Byte/Second))
system.mem_ctrl.dram.peakBW                  12800.00                       # Theoretical peak bandwidth in MiByte/s ((Byte/Second))
system.mem_ctrl.dram.busUtil                     1.01                       # Data bus utilization in percentage (Ratio)
system.mem_ctrl.dram.busUtilRead                 0.71                       # Data bus utilization in percentage for reads (Ratio)
system.mem_ctrl.dram.busUtilWrite                0.30                       # Data bus utilization in percentage for writes (Ratio)
system.mem_ctrl.dram.pageHitRate                83.19                       # Row buffer hit rate, read and write combined (Ratio)
system.mem_ctrl.dram.power_state.pwrStateResidencyTicks::UNDEFINED  41352606000                       # Cumulative time (in ticks) in various power states (Tick)
system.mem_ctrl.dram.rank0.actEnergy         50258460                       # Energy for activate commands per rank (pJ) (Joule)
system.mem_ctrl.dram.rank0.preEnergy         26709210                       # Energy for precharge commands per rank (pJ) (Joule)
system.mem_ctrl.dram.rank0.readEnergy       210080220                       # Energy for read commands per rank (pJ) (Joule)
system.mem_ctrl.dram.rank0.writeEnergy       66424500                       # Energy for write commands per rank (pJ) (Joule)
system.mem_ctrl.dram.rank0.refreshEnergy 3263738400.000000                       # Energy for refresh commands per rank (pJ) (Joule)
system.mem_ctrl.dram.rank0.actBackEnergy  10166218470                       # Energy for active background per rank (pJ) (Joule)
system.mem_ctrl.dram.rank0.preBackEnergy   7318374720                       # Energy for precharge background per rank (pJ) (Joule)
system.mem_ctrl.dram.rank0.actPowerDownEnergy            0                       # Energy for active power-down per rank (pJ) (Joule)
system.mem_ctrl.dram.rank0.prePowerDownEnergy            0                       # Energy for precharge power-down per rank (pJ) (Joule)
system.mem_ctrl.dram.rank0.selfRefreshEnergy            0                       # Energy for self refresh per rank (pJ) (Joule)
system.mem_ctrl.dram.rank0.totalEnergy    21101803980                       # Total energy per rank (pJ) (Joule)
system.mem_ctrl.dram.rank0.averagePower    510.289581                       # Core power per rank (mW) (Watt)
system.mem_ctrl.dram.rank0.totalIdleTime            0                       # Total Idle time Per DRAM Rank (Tick)
system.mem_ctrl.dram.rank0.pwrStateTime::IDLE  18925184000                       # Time in different power states (Tick)
system.mem_ctrl.dram.rank0.pwrStateTime::REF   1380600000                       # Time in different power states (Tick)
system.mem_ctrl.dram.rank0.pwrStateTime::SREF            0                       # Time in different power states (Tick)
system.mem_ctrl.dram.rank0.pwrStateTime::PRE_PDN            0                       # Time in different power states (Tick)
system.mem_ctrl.dram.rank0.pwrStateTime::ACT  21046822000                       # Time in different power states (Tick)
system.mem_ctrl.dram.rank0.pwrStateTime::ACT_PDN            0                       # Time in different power states (Tick)
system.mem_ctrl.dram.rank1.actEnergy         50429820                       # Energy for activate commands per rank (pJ) (Joule)
system.mem_ctrl.dram.rank1.preEnergy         26804085                       # Energy for precharge commands per rank (pJ) (Joule)
system.mem_ctrl.dram.rank1.readEnergy       208745040                       # Energy for read commands per rank (pJ) (Joule)
system.mem_ctrl.dram.rank1.writeEnergy       65218680                       # Energy for write commands per rank (pJ) (Joule)
system.mem_ctrl.dram.rank1.refreshEnergy 3263738400.000000                       # Energy for refresh commands per rank (pJ) (Joule)
system.mem_ctrl.dram.rank1.actBackEnergy   9670665030                       # Energy for active background per rank (pJ) (Joule)
system.mem_ctrl.dram.rank1.preBackEnergy   7735682880                       # Energy for precharge background per rank (pJ) (Joule)
system.mem_ctrl.dram.rank1.actPowerDownEnergy            0                       # Energy for active power-down per rank (pJ) (Joule)
system.mem_ctrl.dram.rank1.prePowerDownEnergy            0                       # Energy for precharge power-down per rank (pJ) (Joule)
system.mem_ctrl.dram.rank1.selfRefreshEnergy            0                       # Energy for self refresh per rank (pJ) (Joule)
system.mem_ctrl.dram.rank1.totalEnergy    21021283935                       # Total energy per rank (pJ) (Joule)
system.mem_ctrl.dram.rank1.averagePower    508.342423                       # Core power per rank (mW) (Watt)
system.mem_ctrl.dram.rank1.totalIdleTime            0                       # Total Idle time Per DRAM Rank (Tick)
system.mem_ctrl.dram.rank1.pwrStateTime::IDLE  20015685500                       # Time in different power states (Tick)
system.mem_ctrl.dram.rank1.pwrStateTime::REF   1380600000                       # Time in different power states (Tick)
system.mem_ctrl.dram.rank1.pwrStateTime::SREF            0                       # Time in different power states (Tick)
system.mem_ctrl.dram.rank1.pwrStateTime::PRE_PDN            0                       # Time in different power states (Tick)
system.mem_ctrl.dram.rank1.pwrStateTime::ACT  19956320500                       # Time in different power states (Tick)
system.mem_ctrl.dram.rank1.pwrStateTime::ACT_PDN            0                       # Time in different power states (Tick)
system.mem_ctrl.power_state.pwrStateResidencyTicks::UNDEFINED  41352606000                       # Cumulative time (in ticks) in various power states (Tick)
system.membus.transDist::ReadResp               11396                       # Transaction distribution (Count)
system.membus.transDist::WritebackDirty         25239                       # Transaction distribution (Count)
system.membus.transDist::CleanEvict               214                       # Transaction distribution (Count)
system.membus.transDist::ReadExReq              47266                       # Transaction distribution (Count)
system.membus.transDist::ReadExResp             47266                       # Transaction distribution (Count)
system.membus.transDist::ReadSharedReq          11396                       # Transaction distribution (Count)
system.membus.pktCount_system.l2cache.mem_side_port::system.mem_ctrl.port       142777                       # Packet count per connected requestor and responder (Count)
system.membus.pktCount_system.l2cache.mem_side_port::total       142777                       # Packet count per connected requestor and responder (Count)
system.membus.pktCount::total                  142777                       # Packet count per connected requestor and responder (Count)
system.membus.pktSize_system.l2cache.mem_side_port::system.mem_ctrl.port      5369664                       # Cumulative packet size per connected requestor and responder (Byte)
system.membus.pktSize_system.l2cache.mem_side_port::total      5369664                       # Cumulative packet size per connected requestor and responder (Byte)
system.membus.pktSize::total                  5369664                       # Cumulative packet size per connected requestor and responder (Byte)
system.membus.snoops                                0                       # Total snoops (Count)
system.membus.snoopTraffic                          0                       # Total snoop traffic (Byte)
system.membus.snoopFanout::samples              58662                       # Request fanout histogram (Count)
system.membus.snoopFanout::mean                     0                       # Request fanout histogram (Count)
system.membus.snoopFanout::stdev                    0                       # Request fanout histogram (Count)
system.membus.snoopFanout::underflows               0      0.00%      0.00% # Request fanout histogram (Count)
system.membus.snoopFanout::0                    58662    100.00%    100.00% # Request fanout histogram (Count)
system.membus.snoopFanout::1                        0      0.00%    100.00% # Request fanout histogram (Count)
system.membus.snoopFanout::overflows                0      0.00%    100.00% # Request fanout histogram (Count)
system.membus.snoopFanout::min_value                0                       # Request fanout histogram (Count)
system.membus.snoopFanout::max_value                0                       # Request fanout histogram (Count)
system.membus.snoopFanout::total                58662                       # Request fanout histogram (Count)
system.membus.power_state.pwrStateResidencyTicks::UNDEFINED  41352606000                       # Cumulative time (in ticks) in various power states (Tick)
system.membus.reqLayer2.occupancy           185071000                       # Layer occupancy (ticks) (Tick)
system.membus.reqLayer2.utilization               0.0                       # Layer utilization (Ratio)
system.membus.respLayer0.occupancy          310190500                       # Layer occupancy (ticks) (Tick)
system.membus.respLayer0.utilization              0.0                       # Layer utilization (Ratio)
system.membus.snoop_filter.totRequests          84115                       # Total number of requests made to the snoop filter. (Count)
system.membus.snoop_filter.hitSingleRequests        25454                       # Number of requests hitting in the snoop filter with a single holder of the requested data. (Count)
system.membus.snoop_filter.hitMultiRequests            0                       # Number of requests hitting in the snoop filter with multiple (>1) holders of the requested data. (Count)
system.membus.snoop_filter.totSnoops                0                       # Total number of snoops made to the snoop filter. (Count)
system.membus.snoop_filter.hitSingleSnoops            0                       # Number of snoops hitting in the snoop filter with a single holder of the requested data. (Count)
system.membus.snoop_filter.hitMultiSnoops            0                       # Number of snoops hitting in the snoop filter with multiple (>1) holders of the requested data. (Count)
system.workload.inst.arm                            0                       # number of arm instructions executed (Count)
system.workload.inst.quiesce                        0                       # number of quiesce instructions executed (Count)

---------- End Simulation Statistics   ----------
