
---------- Begin Simulation Statistics ----------
simSeconds                                   0.062793                       # Number of seconds simulated (Second)
simTicks                                  62793091000                       # Number of ticks simulated (Tick)
finalTick                                 62793091000                       # Number of ticks from beginning of simulation (restored from checkpoints and never reset) (Tick)
simFreq                                  1000000000000                       # The number of ticks per simulated second ((Tick/Second))
hostSeconds                                    336.17                       # Real time elapsed on the host (Second)
hostTickRate                                186787246                       # The number of ticks simulated per host second (ticks/s) ((Tick/Second))
hostMemory                                    8528532                       # Number of bytes of host memory used (Byte)
simInsts                                     50000000                       # Number of instructions simulated (Count)
simOps                                       94757854                       # Number of ops (including micro ops) simulated (Count)
hostInstRate                                   148732                       # Simulator instruction rate (inst/s) ((Count/Second))
hostOpRate                                     281871                       # Simulator op (including micro ops) rate (op/s) ((Count/Second))
system.clk_domain.clock                          1000                       # Clock period in ticks (Tick)
system.clk_domain.voltage_domain.voltage            1                       # Voltage in Volts (Volt)
system.cpu.numCycles                         62793092                       # Number of cpu cycles simulated (Cycle)
system.cpu.numWorkItemsStarted                      0                       # Number of work items this cpu started (Count)
system.cpu.numWorkItemsCompleted                    0                       # Number of work items this cpu completed (Count)
system.cpu.instsAdded                       186416293                       # Number of instructions added to the IQ (excludes non-spec) (Count)
system.cpu.nonSpecInstsAdded                   154389                       # Number of non-speculative instructions added to the IQ (Count)
system.cpu.instsIssued                      162134474                       # Number of instructions issued (Count)
system.cpu.squashedInstsIssued                 612523                       # Number of squashed instructions issued (Count)
system.cpu.squashedInstsExamined             91812812                       # Number of squashed instructions iterated over during squash; mainly for profiling (Count)
system.cpu.squashedOperandsExamined         135561589                       # Number of squashed operands that are examined and possibly removed from graph (Count)
system.cpu.squashedNonSpecRemoved              154353                       # Number of squashed non-spec instructions that were removed (Count)
system.cpu.numIssuedDist::samples            62767014                       # Number of insts issued each cycle (Count)
system.cpu.numIssuedDist::mean               2.583116                       # Number of insts issued each cycle (Count)
system.cpu.numIssuedDist::stdev              2.806316                       # Number of insts issued each cycle (Count)
system.cpu.numIssuedDist::underflows                0      0.00%      0.00% # Number of insts issued each cycle (Count)
system.cpu.numIssuedDist::0                  28578139     45.53%     45.53% # Number of insts issued each cycle (Count)
system.cpu.numIssuedDist::1                   2881181      4.59%     50.12% # Number of insts issued each cycle (Count)
system.cpu.numIssuedDist::2                   3529039      5.62%     55.74% # Number of insts issued each cycle (Count)
system.cpu.numIssuedDist::3                   3759217      5.99%     61.73% # Number of insts issued each cycle (Count)
system.cpu.numIssuedDist::4                   3710041      5.91%     67.64% # Number of insts issued each cycle (Count)
system.cpu.numIssuedDist::5                   5696790      9.08%     76.72% # Number of insts issued each cycle (Count)
system.cpu.numIssuedDist::6                   7460799     11.89%     88.61% # Number of insts issued each cycle (Count)
system.cpu.numIssuedDist::7                   4385808      6.99%     95.59% # Number of insts issued each cycle (Count)
system.cpu.numIssuedDist::8                   2766000      4.41%    100.00% # Number of insts issued each cycle (Count)
system.cpu.numIssuedDist::overflows                 0      0.00%    100.00% # Number of insts issued each cycle (Count)
system.cpu.numIssuedDist::min_value                 0                       # Number of insts issued each cycle (Count)
system.cpu.numIssuedDist::max_value                 8                       # Number of insts issued each cycle (Count)
system.cpu.numIssuedDist::total              62767014                       # Number of insts issued each cycle (Count)
system.cpu.statFuBusy::No_OpClass                   0      0.00%      0.00% # attempts to use FU when none available (Count)
system.cpu.statFuBusy::IntAlu                 3904186     93.30%     93.30% # attempts to use FU when none available (Count)
system.cpu.statFuBusy::IntMult                      0      0.00%     93.30% # attempts to use FU when none available (Count)
system.cpu.statFuBusy::IntDiv                       0      0.00%     93.30% # attempts to use FU when none available (Count)
system.cpu.statFuBusy::FloatAdd                     0      0.00%     93.30% # attempts to use FU when none available (Count)
system.cpu.statFuBusy::FloatCmp                     0      0.00%     93.30% # attempts to use FU when none available (Count)
system.cpu.statFuBusy::FloatCvt                     0      0.00%     93.30% # attempts to use FU when none available (Count)
system.cpu.statFuBusy::FloatMult                    0      0.00%     93.30% # attempts to use FU when none available (Count)
system.cpu.statFuBusy::FloatMultAcc                 0      0.00%     93.30% # attempts to use FU when none available (Count)
system.cpu.statFuBusy::FloatDiv                     0      0.00%     93.30% # attempts to use FU when none available (Count)
system.cpu.statFuBusy::FloatMisc                    0      0.00%     93.30% # attempts to use FU when none available (Count)
system.cpu.statFuBusy::FloatSqrt                    0      0.00%     93.30% # attempts to use FU when none available (Count)
system.cpu.statFuBusy::SimdAdd                      0      0.00%     93.30% # attempts to use FU when none available (Count)
system.cpu.statFuBusy::SimdAddAcc                   0      0.00%     93.30% # attempts to use FU when none available (Count)
system.cpu.statFuBusy::SimdAlu                     13      0.00%     93.30% # attempts to use FU when none available (Count)
system.cpu.statFuBusy::SimdCmp                      0      0.00%     93.30% # attempts to use FU when none available (Count)
system.cpu.statFuBusy::SimdCvt                     47      0.00%     93.31% # attempts to use FU when none available (Count)
system.cpu.statFuBusy::SimdMisc                     8      0.00%     93.31% # attempts to use FU when none available (Count)
system.cpu.statFuBusy::SimdMult                     0      0.00%     93.31% # attempts to use FU when none available (Count)
system.cpu.statFuBusy::SimdMultAcc                  0      0.00%     93.31% # attempts to use FU when none available (Count)
system.cpu.statFuBusy::SimdShift                    0      0.00%     93.31% # attempts to use FU when none available (Count)
system.cpu.statFuBusy::SimdShiftAcc                 0      0.00%     93.31% # attempts to use FU when none available (Count)
system.cpu.statFuBusy::SimdDiv                      0      0.00%     93.31% # attempts to use FU when none available (Count)
system.cpu.statFuBusy::SimdSqrt                     0      0.00%     93.31% # attempts to use FU when none available (Count)
system.cpu.statFuBusy::SimdFloatAdd                 0      0.00%     93.31% # attempts to use FU when none available (Count)
system.cpu.statFuBusy::SimdFloatAlu                 0      0.00%     93.31% # attempts to use FU when none available (Count)
system.cpu.statFuBusy::SimdFloatCmp                 0      0.00%     93.31% # attempts to use FU when none available (Count)
system.cpu.statFuBusy::SimdFloatCvt                 0      0.00%     93.31% # attempts to use FU when none available (Count)
system.cpu.statFuBusy::SimdFloatDiv                 0      0.00%     93.31% # attempts to use FU when none available (Count)
system.cpu.statFuBusy::SimdFloatMisc                0      0.00%     93.31% # attempts to use FU when none available (Count)
system.cpu.statFuBusy::SimdFloatMult                0      0.00%     93.31% # attempts to use FU when none available (Count)
system.cpu.statFuBusy::SimdFloatMultAcc             0      0.00%     93.31% # attempts to use FU when none available (Count)
system.cpu.statFuBusy::SimdFloatSqrt                0      0.00%     93.31% # attempts to use FU when none available (Count)
system.cpu.statFuBusy::SimdReduceAdd                0      0.00%     93.31% # attempts to use FU when none available (Count)
system.cpu.statFuBusy::SimdReduceAlu                0      0.00%     93.31% # attempts to use FU when none available (Count)
system.cpu.statFuBusy::SimdReduceCmp                0      0.00%     93.31% # attempts to use FU when none available (Count)
system.cpu.statFuBusy::SimdFloatReduceAdd            0      0.00%     93.31% # attempts to use FU when none available (Count)
system.cpu.statFuBusy::SimdFloatReduceCmp            0      0.00%     93.31% # attempts to use FU when none available (Count)
system.cpu.statFuBusy::SimdAes                      0      0.00%     93.31% # attempts to use FU when none available (Count)
system.cpu.statFuBusy::SimdAesMix                   0      0.00%     93.31% # attempts to use FU when none available (Count)
system.cpu.statFuBusy::SimdSha1Hash                 0      0.00%     93.31% # attempts to use FU when none available (Count)
system.cpu.statFuBusy::SimdSha1Hash2                0      0.00%     93.31% # attempts to use FU when none available (Count)
system.cpu.statFuBusy::SimdSha256Hash               0      0.00%     93.31% # attempts to use FU when none available (Count)
system.cpu.statFuBusy::SimdSha256Hash2              0      0.00%     93.31% # attempts to use FU when none available (Count)
system.cpu.statFuBusy::SimdShaSigma2                0      0.00%     93.31% # attempts to use FU when none available (Count)
system.cpu.statFuBusy::SimdShaSigma3                0      0.00%     93.31% # attempts to use FU when none available (Count)
system.cpu.statFuBusy::SimdPredAlu                  0      0.00%     93.31% # attempts to use FU when none available (Count)
system.cpu.statFuBusy::MemRead                 177654      4.25%     97.55% # attempts to use FU when none available (Count)
system.cpu.statFuBusy::MemWrite                  1358      0.03%     97.58% # attempts to use FU when none available (Count)
system.cpu.statFuBusy::FloatMemRead                 5      0.00%     97.58% # attempts to use FU when none available (Count)
system.cpu.statFuBusy::FloatMemWrite           101072      2.42%    100.00% # attempts to use FU when none available (Count)
system.cpu.statFuBusy::IprAccess                    0      0.00%    100.00% # attempts to use FU when none available (Count)
system.cpu.statFuBusy::InstPrefetch                 0      0.00%    100.00% # attempts to use FU when none available (Count)
system.cpu.statIssuedInstType_0::No_OpClass      1010607      0.62%      0.62% # Number of instructions issued per FU type, per thread (Count)
system.cpu.statIssuedInstType_0::IntAlu     129051902     79.60%     80.22% # Number of instructions issued per FU type, per thread (Count)
system.cpu.statIssuedInstType_0::IntMult       230152      0.14%     80.36% # Number of instructions issued per FU type, per thread (Count)
system.cpu.statIssuedInstType_0::IntDiv            36      0.00%     80.36% # Number of instructions issued per FU type, per thread (Count)
system.cpu.statIssuedInstType_0::FloatAdd        50759      0.03%     80.39% # Number of instructions issued per FU type, per thread (Count)
system.cpu.statIssuedInstType_0::FloatCmp            0      0.00%     80.39% # Number of instructions issued per FU type, per thread (Count)
system.cpu.statIssuedInstType_0::FloatCvt            0      0.00%     80.39% # Number of instructions issued per FU type, per thread (Count)
system.cpu.statIssuedInstType_0::FloatMult            0      0.00%     80.39% # Number of instructions issued per FU type, per thread (Count)
system.cpu.statIssuedInstType_0::FloatMultAcc            0      0.00%     80.39% # Number of instructions issued per FU type, per thread (Count)
system.cpu.statIssuedInstType_0::FloatDiv            0      0.00%     80.39% # Number of instructions issued per FU type, per thread (Count)
system.cpu.statIssuedInstType_0::FloatMisc            0      0.00%     80.39% # Number of instructions issued per FU type, per thread (Count)
system.cpu.statIssuedInstType_0::FloatSqrt            0      0.00%     80.39% # Number of instructions issued per FU type, per thread (Count)
system.cpu.statIssuedInstType_0::SimdAdd            0      0.00%     80.39% # Number of instructions issued per FU type, per thread (Count)
system.cpu.statIssuedInstType_0::SimdAddAcc            0      0.00%     80.39% # Number of instructions issued per FU type, per thread (Count)
system.cpu.statIssuedInstType_0::SimdAlu          126      0.00%     80.39% # Number of instructions issued per FU type, per thread (Count)
system.cpu.statIssuedInstType_0::SimdCmp            0      0.00%     80.39% # Number of instructions issued per FU type, per thread (Count)
system.cpu.statIssuedInstType_0::SimdCvt       276645      0.17%     80.56% # Number of instructions issued per FU type, per thread (Count)
system.cpu.statIssuedInstType_0::SimdMisc       573100      0.35%     80.92% # Number of instructions issued per FU type, per thread (Count)
system.cpu.statIssuedInstType_0::SimdMult            0      0.00%     80.92% # Number of instructions issued per FU type, per thread (Count)
system.cpu.statIssuedInstType_0::SimdMultAcc            0      0.00%     80.92% # Number of instructions issued per FU type, per thread (Count)
system.cpu.statIssuedInstType_0::SimdShift            0      0.00%     80.92% # Number of instructions issued per FU type, per thread (Count)
system.cpu.statIssuedInstType_0::SimdShiftAcc            0      0.00%     80.92% # Number of instructions issued per FU type, per thread (Count)
system.cpu.statIssuedInstType_0::SimdDiv            0      0.00%     80.92% # Number of instructions issued per FU type, per thread (Count)
system.cpu.statIssuedInstType_0::SimdSqrt            0      0.00%     80.92% # Number of instructions issued per FU type, per thread (Count)
system.cpu.statIssuedInstType_0::SimdFloatAdd            0      0.00%     80.92% # Number of instructions issued per FU type, per thread (Count)
system.cpu.statIssuedInstType_0::SimdFloatAlu            0      0.00%     80.92% # Number of instructions issued per FU type, per thread (Count)
system.cpu.statIssuedInstType_0::SimdFloatCmp            0      0.00%     80.92% # Number of instructions issued per FU type, per thread (Count)
system.cpu.statIssuedInstType_0::SimdFloatCvt            0      0.00%     80.92% # Number of instructions issued per FU type, per thread (Count)
system.cpu.statIssuedInstType_0::SimdFloatDiv            0      0.00%     80.92% # Number of instructions issued per FU type, per thread (Count)
system.cpu.statIssuedInstType_0::SimdFloatMisc            0      0.00%     80.92% # Number of instructions issued per FU type, per thread (Count)
system.cpu.statIssuedInstType_0::SimdFloatMult            0      0.00%     80.92% # Number of instructions issued per FU type, per thread (Count)
system.cpu.statIssuedInstType_0::SimdFloatMultAcc            0      0.00%     80.92% # Number of instructions issued per FU type, per thread (Count)
system.cpu.statIssuedInstType_0::SimdFloatSqrt            0      0.00%     80.92% # Number of instructions issued per FU type, per thread (Count)
system.cpu.statIssuedInstType_0::SimdReduceAdd            0      0.00%     80.92% # Number of instructions issued per FU type, per thread (Count)
system.cpu.statIssuedInstType_0::SimdReduceAlu            0      0.00%     80.92% # Number of instructions issued per FU type, per thread (Count)
system.cpu.statIssuedInstType_0::SimdReduceCmp            0      0.00%     80.92% # Number of instructions issued per FU type, per thread (Count)
system.cpu.statIssuedInstType_0::SimdFloatReduceAdd            0      0.00%     80.92% # Number of instructions issued per FU type, per thread (Count)
system.cpu.statIssuedInstType_0::SimdFloatReduceCmp            0      0.00%     80.92% # Number of instructions issued per FU type, per thread (Count)
system.cpu.statIssuedInstType_0::SimdAes            0      0.00%     80.92% # Number of instructions issued per FU type, per thread (Count)
system.cpu.statIssuedInstType_0::SimdAesMix            0      0.00%     80.92% # Number of instructions issued per FU type, per thread (Count)
system.cpu.statIssuedInstType_0::SimdSha1Hash            0      0.00%     80.92% # Number of instructions issued per FU type, per thread (Count)
system.cpu.statIssuedInstType_0::SimdSha1Hash2            0      0.00%     80.92% # Number of instructions issued per FU type, per thread (Count)
system.cpu.statIssuedInstType_0::SimdSha256Hash            0      0.00%     80.92% # Number of instructions issued per FU type, per thread (Count)
system.cpu.statIssuedInstType_0::SimdSha256Hash2            0      0.00%     80.92% # Number of instructions issued per FU type, per thread (Count)
system.cpu.statIssuedInstType_0::SimdShaSigma2            0      0.00%     80.92% # Number of instructions issued per FU type, per thread (Count)
system.cpu.statIssuedInstType_0::SimdShaSigma3            0      0.00%     80.92% # Number of instructions issued per FU type, per thread (Count)
system.cpu.statIssuedInstType_0::SimdPredAlu            0      0.00%     80.92% # Number of instructions issued per FU type, per thread (Count)
system.cpu.statIssuedInstType_0::MemRead     18602695     11.47%     92.39% # Number of instructions issued per FU type, per thread (Count)
system.cpu.statIssuedInstType_0::MemWrite     11545709      7.12%     99.51% # Number of instructions issued per FU type, per thread (Count)
system.cpu.statIssuedInstType_0::FloatMemRead       489020      0.30%     99.81% # Number of instructions issued per FU type, per thread (Count)
system.cpu.statIssuedInstType_0::FloatMemWrite       303723      0.19%    100.00% # Number of instructions issued per FU type, per thread (Count)
system.cpu.statIssuedInstType_0::IprAccess            0      0.00%    100.00% # Number of instructions issued per FU type, per thread (Count)
system.cpu.statIssuedInstType_0::InstPrefetch            0      0.00%    100.00% # Number of instructions issued per FU type, per thread (Count)
system.cpu.statIssuedInstType_0::total      162134474                       # Number of instructions issued per FU type, per thread (Count)
system.cpu.issueRate                         2.582043                       # Inst issue rate ((Count/Cycle))
system.cpu.fuBusy                             4184343                       # FU busy when requested (Count)
system.cpu.fuBusyRate                        0.025808                       # FU busy rate (busy events/executed inst) ((Count/Count))
system.cpu.intInstQueueReads                388193055                       # Number of integer instruction queue reads (Count)
system.cpu.intInstQueueWrites               274723077                       # Number of integer instruction queue writes (Count)
system.cpu.intInstQueueWakeupAccesses       150043994                       # Number of integer instruction queue wakeup accesses (Count)
system.cpu.fpInstQueueReads                   3639771                       # Number of floating instruction queue reads (Count)
system.cpu.fpInstQueueWrites                  3661611                       # Number of floating instruction queue writes (Count)
system.cpu.fpInstQueueWakeupAccesses          1430961                       # Number of floating instruction queue wakeup accesses (Count)
system.cpu.vecInstQueueReads                        0                       # Number of vector instruction queue reads (Count)
system.cpu.vecInstQueueWrites                       0                       # Number of vector instruction queue writes (Count)
system.cpu.vecInstQueueWakeupAccesses               0                       # Number of vector instruction queue wakeup accesses (Count)
system.cpu.intAluAccesses                   163462927                       # Number of integer alu accesses (Count)
system.cpu.fpAluAccesses                      1845283                       # Number of floating point alu accesses (Count)
system.cpu.vecAluAccesses                           0                       # Number of vector alu accesses (Count)
system.cpu.numInsts                         154630906                       # Number of executed instructions (Count)
system.cpu.numLoadInsts                      17720004                       # Number of load instructions executed (Count)
system.cpu.numSquashedInsts                   7503566                       # Number of squashed instructions skipped in execute (Count)
system.cpu.numSwp                                   0                       # Number of swp insts executed (Count)
system.cpu.numNop                                   0                       # Number of nop insts executed (Count)
system.cpu.numRefs                           28711513                       # Number of memory reference insts executed (Count)
system.cpu.numBranches                       17390667                       # Number of branches executed (Count)
system.cpu.numStoreInsts                     10991509                       # Number of stores executed (Count)
system.cpu.numRate                           2.462546                       # Inst execution rate ((Count/Cycle))
system.cpu.timesIdled                             451                       # Number of times that the entire CPU went into an idle state and unscheduled itself (Count)
system.cpu.idleCycles                           26078                       # Total number of cycles that the CPU has spent unscheduled due to idling (Cycle)
system.cpu.committedInsts                    50000000                       # Number of Instructions Simulated (Count)
system.cpu.committedOps                      94757854                       # Number of Ops (including micro ops) Simulated (Count)
system.cpu.cpi                               1.255862                       # CPI: Cycles Per Instruction ((Cycle/Count))
system.cpu.totalCpi                          1.255862                       # CPI: Total CPI of All Threads ((Cycle/Count))
system.cpu.ipc                               0.796266                       # IPC: Instructions Per Cycle ((Count/Cycle))
system.cpu.totalIpc                          0.796266                       # IPC: Total IPC of All Threads ((Count/Cycle))
system.cpu.intRegfileReads                  177357129                       # Number of integer regfile reads (Count)
system.cpu.intRegfileWrites                 107839793                       # Number of integer regfile writes (Count)
system.cpu.fpRegfileReads                     2113802                       # Number of floating regfile reads (Count)
system.cpu.fpRegfileWrites                    1073496                       # Number of floating regfile writes (Count)
system.cpu.ccRegfileReads                    83415341                       # number of cc regfile reads (Count)
system.cpu.ccRegfileWrites                   45306477                       # number of cc regfile writes (Count)
system.cpu.miscRegfileReads                  66212253                       # number of misc regfile reads (Count)
system.cpu.MemDepUnit__0.insertedLoads       22059281                       # Number of loads inserted to the mem dependence unit. (Count)
system.cpu.MemDepUnit__0.insertedStores      14455922                       # Number of stores inserted to the mem dependence unit. (Count)
system.cpu.MemDepUnit__0.conflictingLoads       970382                       # Number of conflicting loads. (Count)
system.cpu.MemDepUnit__0.conflictingStores       180827                       # Number of conflicting stores. (Count)
system.cpu.MemDepUnit__1.insertedLoads              0                       # Number of loads inserted to the mem dependence unit. (Count)
system.cpu.MemDepUnit__1.insertedStores             0                       # Number of stores inserted to the mem dependence unit. (Count)
system.cpu.MemDepUnit__1.conflictingLoads            0                       # Number of conflicting loads. (Count)
system.cpu.MemDepUnit__1.conflictingStores            0                       # Number of conflicting stores. (Count)
system.cpu.MemDepUnit__2.insertedLoads              0                       # Number of loads inserted to the mem dependence unit. (Count)
system.cpu.MemDepUnit__2.insertedStores             0                       # Number of stores inserted to the mem dependence unit. (Count)
system.cpu.MemDepUnit__2.conflictingLoads            0                       # Number of conflicting loads. (Count)
system.cpu.MemDepUnit__2.conflictingStores            0                       # Number of conflicting stores. (Count)
system.cpu.MemDepUnit__3.insertedLoads              0                       # Number of loads inserted to the mem dependence unit. (Count)
system.cpu.MemDepUnit__3.insertedStores             0                       # Number of stores inserted to the mem dependence unit. (Count)
system.cpu.MemDepUnit__3.conflictingLoads            0                       # Number of conflicting loads. (Count)
system.cpu.MemDepUnit__3.conflictingStores            0                       # Number of conflicting stores. (Count)
system.cpu.branchPred.lookups                29446182                       # Number of BP lookups (Count)
system.cpu.branchPred.condPredicted          22303377                       # Number of conditional branches predicted (Count)
system.cpu.branchPred.condIncorrect           2911652                       # Number of conditional branches incorrect (Count)
system.cpu.branchPred.BTBLookups              4652099                       # Number of BTB lookups (Count)
system.cpu.branchPred.BTBHits                 4630214                       # Number of BTB hits (Count)
system.cpu.branchPred.BTBHitRatio            0.995296                       # BTB Hit Ratio (Ratio)
system.cpu.branchPred.RASUsed                 1673284                       # Number of times the RAS was used to get a target. (Count)
system.cpu.branchPred.RASIncorrect             112810                       # Number of incorrect RAS predictions. (Count)
system.cpu.branchPred.indirectLookups          817422                       # Number of indirect predictor lookups. (Count)
system.cpu.branchPred.indirectHits             140305                       # Number of indirect target hits. (Count)
system.cpu.branchPred.indirectMisses           677117                       # Number of indirect misses. (Count)
system.cpu.branchPred.indirectMispredicted           75                       # Number of mispredicted indirect branches. (Count)
system.cpu.commit.commitSquashedInsts        91784782                       # The number of squashed insts skipped by commit (Count)
system.cpu.commit.commitNonSpecStalls              36                       # The number of times commit has been forced to stall to communicate backwards (Count)
system.cpu.commit.branchMispredicts           2982656                       # The number of times a branch was mispredicted (Count)
system.cpu.commit.numCommittedDist::samples     49482739                       # Number of insts commited each cycle (Count)
system.cpu.commit.numCommittedDist::mean     1.914968                       # Number of insts commited each cycle (Count)
system.cpu.commit.numCommittedDist::stdev     2.563904                       # Number of insts commited each cycle (Count)
system.cpu.commit.numCommittedDist::underflows            0      0.00%      0.00% # Number of insts commited each cycle (Count)
system.cpu.commit.numCommittedDist::0        23552319     47.60%     47.60% # Number of insts commited each cycle (Count)
system.cpu.commit.numCommittedDist::1         6100665     12.33%     59.93% # Number of insts commited each cycle (Count)
system.cpu.commit.numCommittedDist::2         4652497      9.40%     69.33% # Number of insts commited each cycle (Count)
system.cpu.commit.numCommittedDist::3         5146992     10.40%     79.73% # Number of insts commited each cycle (Count)
system.cpu.commit.numCommittedDist::4         2358187      4.77%     84.50% # Number of insts commited each cycle (Count)
system.cpu.commit.numCommittedDist::5         1363270      2.76%     87.25% # Number of insts commited each cycle (Count)
system.cpu.commit.numCommittedDist::6         1126692      2.28%     89.53% # Number of insts commited each cycle (Count)
system.cpu.commit.numCommittedDist::7          554967      1.12%     90.65% # Number of insts commited each cycle (Count)
system.cpu.commit.numCommittedDist::8         4627150      9.35%    100.00% # Number of insts commited each cycle (Count)
system.cpu.commit.numCommittedDist::overflows            0      0.00%    100.00% # Number of insts commited each cycle (Count)
system.cpu.commit.numCommittedDist::min_value            0                       # Number of insts commited each cycle (Count)
system.cpu.commit.numCommittedDist::max_value            8                       # Number of insts commited each cycle (Count)
system.cpu.commit.numCommittedDist::total     49482739                       # Number of insts commited each cycle (Count)
system.cpu.commit.instsCommitted             50000000                       # Number of instructions committed (Count)
system.cpu.commit.opsCommitted               94757854                       # Number of ops (including micro ops) committed (Count)
system.cpu.commit.memRefs                    17616402                       # Number of memory references committed (Count)
system.cpu.commit.loads                      10653360                       # Number of loads committed (Count)
system.cpu.commit.amos                              0                       # Number of atomic instructions committed (Count)
system.cpu.commit.membars                          24                       # Number of memory barriers committed (Count)
system.cpu.commit.branches                   11816955                       # Number of branches committed (Count)
system.cpu.commit.vectorInstructions                0                       # Number of committed Vector instructions. (Count)
system.cpu.commit.floating                     797407                       # Number of committed floating point instructions. (Count)
system.cpu.commit.integer                    93840963                       # Number of committed integer instructions. (Count)
system.cpu.commit.functionCalls                489612                       # Number of function calls committed. (Count)
system.cpu.commit.committedInstType_0::No_OpClass       206365      0.22%      0.22% # Class of committed instruction (Count)
system.cpu.commit.committedInstType_0::IntAlu     76071911     80.28%     80.50% # Class of committed instruction (Count)
system.cpu.commit.committedInstType_0::IntMult       230150      0.24%     80.74% # Class of committed instruction (Count)
system.cpu.commit.committedInstType_0::IntDiv           28      0.00%     80.74% # Class of committed instruction (Count)
system.cpu.commit.committedInstType_0::FloatAdd        50759      0.05%     80.79% # Class of committed instruction (Count)
system.cpu.commit.committedInstType_0::FloatCmp            0      0.00%     80.79% # Class of committed instruction (Count)
system.cpu.commit.committedInstType_0::FloatCvt            0      0.00%     80.79% # Class of committed instruction (Count)
system.cpu.commit.committedInstType_0::FloatMult            0      0.00%     80.79% # Class of committed instruction (Count)
system.cpu.commit.committedInstType_0::FloatMultAcc            0      0.00%     80.79% # Class of committed instruction (Count)
system.cpu.commit.committedInstType_0::FloatDiv            0      0.00%     80.79% # Class of committed instruction (Count)
system.cpu.commit.committedInstType_0::FloatMisc            0      0.00%     80.79% # Class of committed instruction (Count)
system.cpu.commit.committedInstType_0::FloatSqrt            0      0.00%     80.79% # Class of committed instruction (Count)
system.cpu.commit.committedInstType_0::SimdAdd            0      0.00%     80.79% # Class of committed instruction (Count)
system.cpu.commit.committedInstType_0::SimdAddAcc            0      0.00%     80.79% # Class of committed instruction (Count)
system.cpu.commit.committedInstType_0::SimdAlu           98      0.00%     80.79% # Class of committed instruction (Count)
system.cpu.commit.committedInstType_0::SimdCmp            0      0.00%     80.79% # Class of committed instruction (Count)
system.cpu.commit.committedInstType_0::SimdCvt       113412      0.12%     80.91% # Class of committed instruction (Count)
system.cpu.commit.committedInstType_0::SimdMisc       468729      0.49%     81.41% # Class of committed instruction (Count)
system.cpu.commit.committedInstType_0::SimdMult            0      0.00%     81.41% # Class of committed instruction (Count)
system.cpu.commit.committedInstType_0::SimdMultAcc            0      0.00%     81.41% # Class of committed instruction (Count)
system.cpu.commit.committedInstType_0::SimdShift            0      0.00%     81.41% # Class of committed instruction (Count)
system.cpu.commit.committedInstType_0::SimdShiftAcc            0      0.00%     81.41% # Class of committed instruction (Count)
system.cpu.commit.committedInstType_0::SimdDiv            0      0.00%     81.41% # Class of committed instruction (Count)
system.cpu.commit.committedInstType_0::SimdSqrt            0      0.00%     81.41% # Class of committed instruction (Count)
system.cpu.commit.committedInstType_0::SimdFloatAdd            0      0.00%     81.41% # Class of committed instruction (Count)
system.cpu.commit.committedInstType_0::SimdFloatAlu            0      0.00%     81.41% # Class of committed instruction (Count)
system.cpu.commit.committedInstType_0::SimdFloatCmp            0      0.00%     81.41% # Class of committed instruction (Count)
system.cpu.commit.committedInstType_0::SimdFloatCvt            0      0.00%     81.41% # Class of committed instruction (Count)
system.cpu.commit.committedInstType_0::SimdFloatDiv            0      0.00%     81.41% # Class of committed instruction (Count)
system.cpu.commit.committedInstType_0::SimdFloatMisc            0      0.00%     81.41% # Class of committed instruction (Count)
system.cpu.commit.committedInstType_0::SimdFloatMult            0      0.00%     81.41% # Class of committed instruction (Count)
system.cpu.commit.committedInstType_0::SimdFloatMultAcc            0      0.00%     81.41% # Class of committed instruction (Count)
system.cpu.commit.committedInstType_0::SimdFloatSqrt            0      0.00%     81.41% # Class of committed instruction (Count)
system.cpu.commit.committedInstType_0::SimdReduceAdd            0      0.00%     81.41% # Class of committed instruction (Count)
system.cpu.commit.committedInstType_0::SimdReduceAlu            0      0.00%     81.41% # Class of committed instruction (Count)
system.cpu.commit.committedInstType_0::SimdReduceCmp            0      0.00%     81.41% # Class of committed instruction (Count)
system.cpu.commit.committedInstType_0::SimdFloatReduceAdd            0      0.00%     81.41% # Class of committed instruction (Count)
system.cpu.commit.committedInstType_0::SimdFloatReduceCmp            0      0.00%     81.41% # Class of committed instruction (Count)
system.cpu.commit.committedInstType_0::SimdAes            0      0.00%     81.41% # Class of committed instruction (Count)
system.cpu.commit.committedInstType_0::SimdAesMix            0      0.00%     81.41% # Class of committed instruction (Count)
system.cpu.commit.committedInstType_0::SimdSha1Hash            0      0.00%     81.41% # Class of committed instruction (Count)
system.cpu.commit.committedInstType_0::SimdSha1Hash2            0      0.00%     81.41% # Class of committed instruction (Count)
system.cpu.commit.committedInstType_0::SimdSha256Hash            0      0.00%     81.41% # Class of committed instruction (Count)
system.cpu.commit.committedInstType_0::SimdSha256Hash2            0      0.00%     81.41% # Class of committed instruction (Count)
system.cpu.commit.committedInstType_0::SimdShaSigma2            0      0.00%     81.41% # Class of committed instruction (Count)
system.cpu.commit.committedInstType_0::SimdShaSigma3            0      0.00%     81.41% # Class of committed instruction (Count)
system.cpu.commit.committedInstType_0::SimdPredAlu            0      0.00%     81.41% # Class of committed instruction (Count)
system.cpu.commit.committedInstType_0::MemRead     10539956     11.12%     92.53% # Class of committed instruction (Count)
system.cpu.commit.committedInstType_0::MemWrite      6962802      7.35%     99.88% # Class of committed instruction (Count)
system.cpu.commit.committedInstType_0::FloatMemRead       113404      0.12%    100.00% # Class of committed instruction (Count)
system.cpu.commit.committedInstType_0::FloatMemWrite          240      0.00%    100.00% # Class of committed instruction (Count)
system.cpu.commit.committedInstType_0::IprAccess            0      0.00%    100.00% # Class of committed instruction (Count)
system.cpu.commit.committedInstType_0::InstPrefetch            0      0.00%    100.00% # Class of committed instruction (Count)
system.cpu.commit.committedInstType_0::total     94757854                       # Class of committed instruction (Count)
system.cpu.commit.commitEligibleSamples       4627150                       # number cycles where commit BW limit reached (Cycle)
system.cpu.dcache.demandHits::cpu.data       22637696                       # number of demand (read+write) hits (Count)
system.cpu.dcache.demandHits::total          22637696                       # number of demand (read+write) hits (Count)
system.cpu.dcache.overallHits::cpu.data      22637696                       # number of overall hits (Count)
system.cpu.dcache.overallHits::total         22637696                       # number of overall hits (Count)
system.cpu.dcache.demandMisses::cpu.data        82993                       # number of demand (read+write) misses (Count)
system.cpu.dcache.demandMisses::total           82993                       # number of demand (read+write) misses (Count)
system.cpu.dcache.overallMisses::cpu.data        82993                       # number of overall misses (Count)
system.cpu.dcache.overallMisses::total          82993                       # number of overall misses (Count)
system.cpu.dcache.demandMissLatency::cpu.data   6879320999                       # number of demand (read+write) miss ticks (Tick)
system.cpu.dcache.demandMissLatency::total   6879320999                       # number of demand (read+write) miss ticks (Tick)
system.cpu.dcache.overallMissLatency::cpu.data   6879320999                       # number of overall miss ticks (Tick)
system.cpu.dcache.overallMissLatency::total   6879320999                       # number of overall miss ticks (Tick)
system.cpu.dcache.demandAccesses::cpu.data     22720689                       # number of demand (read+write) accesses (Count)
system.cpu.dcache.demandAccesses::total      22720689                       # number of demand (read+write) accesses (Count)
system.cpu.dcache.overallAccesses::cpu.data     22720689                       # number of overall (read+write) accesses (Count)
system.cpu.dcache.overallAccesses::total     22720689                       # number of overall (read+write) accesses (Count)
system.cpu.dcache.demandMissRate::cpu.data     0.003653                       # miss rate for demand accesses (Ratio)
system.cpu.dcache.demandMissRate::total      0.003653                       # miss rate for demand accesses (Ratio)
system.cpu.dcache.overallMissRate::cpu.data     0.003653                       # miss rate for overall accesses (Ratio)
system.cpu.dcache.overallMissRate::total     0.003653                       # miss rate for overall accesses (Ratio)
system.cpu.dcache.demandAvgMissLatency::cpu.data 82890.376285                       # average overall miss latency in ticks ((Tick/Count))
system.cpu.dcache.demandAvgMissLatency::total 82890.376285                       # average overall miss latency in ticks ((Tick/Count))
system.cpu.dcache.overallAvgMissLatency::cpu.data 82890.376285                       # average overall miss latency ((Tick/Count))
system.cpu.dcache.overallAvgMissLatency::total 82890.376285                       # average overall miss latency ((Tick/Count))
system.cpu.dcache.blockedCycles::no_mshrs         1970                       # number of cycles access was blocked (Cycle)
system.cpu.dcache.blockedCycles::no_targets            0                       # number of cycles access was blocked (Cycle)
system.cpu.dcache.blockedCauses::no_mshrs           63                       # number of times access was blocked (Count)
system.cpu.dcache.blockedCauses::no_targets            0                       # number of times access was blocked (Count)
system.cpu.dcache.avgBlocked::no_mshrs      31.269841                       # average number of cycles each access was blocked ((Cycle/Count))
system.cpu.dcache.avgBlocked::no_targets          nan                       # average number of cycles each access was blocked ((Cycle/Count))
system.cpu.dcache.writebacks::writebacks        64495                       # number of writebacks (Count)
system.cpu.dcache.writebacks::total             64495                       # number of writebacks (Count)
system.cpu.dcache.demandMshrHits::cpu.data        12913                       # number of demand (read+write) MSHR hits (Count)
system.cpu.dcache.demandMshrHits::total         12913                       # number of demand (read+write) MSHR hits (Count)
system.cpu.dcache.overallMshrHits::cpu.data        12913                       # number of overall MSHR hits (Count)
system.cpu.dcache.overallMshrHits::total        12913                       # number of overall MSHR hits (Count)
system.cpu.dcache.demandMshrMisses::cpu.data        70080                       # number of demand (read+write) MSHR misses (Count)
system.cpu.dcache.demandMshrMisses::total        70080                       # number of demand (read+write) MSHR misses (Count)
system.cpu.dcache.overallMshrMisses::cpu.data        70080                       # number of overall MSHR misses (Count)
system.cpu.dcache.overallMshrMisses::total        70080                       # number of overall MSHR misses (Count)
system.cpu.dcache.demandMshrMissLatency::cpu.data   6161538999                       # number of demand (read+write) MSHR miss ticks (Tick)
system.cpu.dcache.demandMshrMissLatency::total   6161538999                       # number of demand (read+write) MSHR miss ticks (Tick)
system.cpu.dcache.overallMshrMissLatency::cpu.data   6161538999                       # number of overall MSHR miss ticks (Tick)
system.cpu.dcache.overallMshrMissLatency::total   6161538999                       # number of overall MSHR miss ticks (Tick)
system.cpu.dcache.demandMshrMissRate::cpu.data     0.003084                       # mshr miss ratio for demand accesses (Ratio)
system.cpu.dcache.demandMshrMissRate::total     0.003084                       # mshr miss ratio for demand accesses (Ratio)
system.cpu.dcache.overallMshrMissRate::cpu.data     0.003084                       # mshr miss ratio for overall accesses (Ratio)
system.cpu.dcache.overallMshrMissRate::total     0.003084                       # mshr miss ratio for overall accesses (Ratio)
system.cpu.dcache.demandAvgMshrMissLatency::cpu.data 87921.503981                       # average overall mshr miss latency ((Tick/Count))
system.cpu.dcache.demandAvgMshrMissLatency::total 87921.503981                       # average overall mshr miss latency ((Tick/Count))
system.cpu.dcache.overallAvgMshrMissLatency::cpu.data 87921.503981                       # average overall mshr miss latency ((Tick/Count))
system.cpu.dcache.overallAvgMshrMissLatency::total 87921.503981                       # average overall mshr miss latency ((Tick/Count))
system.cpu.dcache.replacements                  69568                       # number of replacements (Count)
system.cpu.dcache.LockedRMWReadReq.hits::cpu.data           12                       # number of LockedRMWReadReq hits (Count)
system.cpu.dcache.LockedRMWReadReq.hits::total           12                       # number of LockedRMWReadReq hits (Count)
system.cpu.dcache.LockedRMWReadReq.accesses::cpu.data           12                       # number of LockedRMWReadReq accesses(hits+misses) (Count)
system.cpu.dcache.LockedRMWReadReq.accesses::total           12                       # number of LockedRMWReadReq accesses(hits+misses) (Count)
system.cpu.dcache.LockedRMWReadReq.mshrMissLatency::cpu.data       138000                       # number of LockedRMWReadReq MSHR miss ticks (Tick)
system.cpu.dcache.LockedRMWReadReq.mshrMissLatency::total       138000                       # number of LockedRMWReadReq MSHR miss ticks (Tick)
system.cpu.dcache.LockedRMWReadReq.avgMshrMissLatency::cpu.data          inf                       # average LockedRMWReadReq mshr miss latency ((Tick/Count))
system.cpu.dcache.LockedRMWReadReq.avgMshrMissLatency::total          inf                       # average LockedRMWReadReq mshr miss latency ((Tick/Count))
system.cpu.dcache.LockedRMWWriteReq.hits::cpu.data           12                       # number of LockedRMWWriteReq hits (Count)
system.cpu.dcache.LockedRMWWriteReq.hits::total           12                       # number of LockedRMWWriteReq hits (Count)
system.cpu.dcache.LockedRMWWriteReq.accesses::cpu.data           12                       # number of LockedRMWWriteReq accesses(hits+misses) (Count)
system.cpu.dcache.LockedRMWWriteReq.accesses::total           12                       # number of LockedRMWWriteReq accesses(hits+misses) (Count)
system.cpu.dcache.ReadReq.hits::cpu.data     15726006                       # number of ReadReq hits (Count)
system.cpu.dcache.ReadReq.hits::total        15726006                       # number of ReadReq hits (Count)
system.cpu.dcache.ReadReq.misses::cpu.data        31666                       # number of ReadReq misses (Count)
system.cpu.dcache.ReadReq.misses::total         31666                       # number of ReadReq misses (Count)
system.cpu.dcache.ReadReq.missLatency::cpu.data   1898791000                       # number of ReadReq miss ticks (Tick)
system.cpu.dcache.ReadReq.missLatency::total   1898791000                       # number of ReadReq miss ticks (Tick)
system.cpu.dcache.ReadReq.accesses::cpu.data     15757672                       # number of ReadReq accesses(hits+misses) (Count)
system.cpu.dcache.ReadReq.accesses::total     15757672                       # number of ReadReq accesses(hits+misses) (Count)
system.cpu.dcache.ReadReq.missRate::cpu.data     0.002010                       # miss rate for ReadReq accesses (Ratio)
system.cpu.dcache.ReadReq.missRate::total     0.002010                       # miss rate for ReadReq accesses (Ratio)
system.cpu.dcache.ReadReq.avgMissLatency::cpu.data 59963.083433                       # average ReadReq miss latency ((Tick/Count))
system.cpu.dcache.ReadReq.avgMissLatency::total 59963.083433                       # average ReadReq miss latency ((Tick/Count))
system.cpu.dcache.ReadReq.mshrHits::cpu.data         9160                       # number of ReadReq MSHR hits (Count)
system.cpu.dcache.ReadReq.mshrHits::total         9160                       # number of ReadReq MSHR hits (Count)
system.cpu.dcache.ReadReq.mshrMisses::cpu.data        22506                       # number of ReadReq MSHR misses (Count)
system.cpu.dcache.ReadReq.mshrMisses::total        22506                       # number of ReadReq MSHR misses (Count)
system.cpu.dcache.ReadReq.mshrMissLatency::cpu.data   1371637000                       # number of ReadReq MSHR miss ticks (Tick)
system.cpu.dcache.ReadReq.mshrMissLatency::total   1371637000                       # number of ReadReq MSHR miss ticks (Tick)
system.cpu.dcache.ReadReq.mshrMissRate::cpu.data     0.001428                       # mshr miss rate for ReadReq accesses (Ratio)
system.cpu.dcache.ReadReq.mshrMissRate::total     0.001428                       # mshr miss rate for ReadReq accesses (Ratio)
system.cpu.dcache.ReadReq.avgMshrMissLatency::cpu.data 60945.392340                       # average ReadReq mshr miss latency ((Tick/Count))
system.cpu.dcache.ReadReq.avgMshrMissLatency::total 60945.392340                       # average ReadReq mshr miss latency ((Tick/Count))
system.cpu.dcache.WriteReq.hits::cpu.data      6911690                       # number of WriteReq hits (Count)
system.cpu.dcache.WriteReq.hits::total        6911690                       # number of WriteReq hits (Count)
system.cpu.dcache.WriteReq.misses::cpu.data        51327                       # number of WriteReq misses (Count)
system.cpu.dcache.WriteReq.misses::total        51327                       # number of WriteReq misses (Count)
system.cpu.dcache.WriteReq.missLatency::cpu.data   4980529999                       # number of WriteReq miss ticks (Tick)
system.cpu.dcache.WriteReq.missLatency::total   4980529999                       # number of WriteReq miss ticks (Tick)
system.cpu.dcache.WriteReq.accesses::cpu.data      6963017                       # number of WriteReq accesses(hits+misses) (Count)
system.cpu.dcache.WriteReq.accesses::total      6963017                       # number of WriteReq accesses(hits+misses) (Count)
system.cpu.dcache.WriteReq.missRate::cpu.data     0.007371                       # miss rate for WriteReq accesses (Ratio)
system.cpu.dcache.WriteReq.missRate::total     0.007371                       # miss rate for WriteReq accesses (Ratio)
system.cpu.dcache.WriteReq.avgMissLatency::cpu.data 97035.283554                       # average WriteReq miss latency ((Tick/Count))
system.cpu.dcache.WriteReq.avgMissLatency::total 97035.283554                       # average WriteReq miss latency ((Tick/Count))
system.cpu.dcache.WriteReq.mshrHits::cpu.data         3753                       # number of WriteReq MSHR hits (Count)
system.cpu.dcache.WriteReq.mshrHits::total         3753                       # number of WriteReq MSHR hits (Count)
system.cpu.dcache.WriteReq.mshrMisses::cpu.data        47574                       # number of WriteReq MSHR misses (Count)
system.cpu.dcache.WriteReq.mshrMisses::total        47574                       # number of WriteReq MSHR misses (Count)
system.cpu.dcache.WriteReq.mshrMissLatency::cpu.data   4789901999                       # number of WriteReq MSHR miss ticks (Tick)
system.cpu.dcache.WriteReq.mshrMissLatency::total   4789901999                       # number of WriteReq MSHR miss ticks (Tick)
system.cpu.dcache.WriteReq.mshrMissRate::cpu.data     0.006832                       # mshr miss rate for WriteReq accesses (Ratio)
system.cpu.dcache.WriteReq.mshrMissRate::total     0.006832                       # mshr miss rate for WriteReq accesses (Ratio)
system.cpu.dcache.WriteReq.avgMshrMissLatency::cpu.data 100683.188275                       # average WriteReq mshr miss latency ((Tick/Count))
system.cpu.dcache.WriteReq.avgMshrMissLatency::total 100683.188275                       # average WriteReq mshr miss latency ((Tick/Count))
system.cpu.dcache.power_state.pwrStateResidencyTicks::UNDEFINED  62793091000                       # Cumulative time (in ticks) in various power states (Tick)
system.cpu.dcache.tags.tagsInUse           511.347932                       # Average ticks per tags in use ((Tick/Count))
system.cpu.dcache.tags.totalRefs             22707800                       # Total number of references to valid blocks. (Count)
system.cpu.dcache.tags.sampledRefs              70080                       # Sample count of references to valid blocks. (Count)
system.cpu.dcache.tags.avgRefs             324.026826                       # Average number of references to valid blocks. ((Count/Count))
system.cpu.dcache.tags.warmupTick              222000                       # The tick when the warmup percentage was hit. (Tick)
system.cpu.dcache.tags.occupancies::cpu.data   511.347932                       # Average occupied blocks per tick, per requestor ((Count/Tick))
system.cpu.dcache.tags.avgOccs::cpu.data     0.998726                       # Average percentage of cache occupancy ((Ratio/Tick))
system.cpu.dcache.tags.avgOccs::total        0.998726                       # Average percentage of cache occupancy ((Ratio/Tick))
system.cpu.dcache.tags.occupanciesTaskId::1024          512                       # Occupied blocks per task id (Count)
system.cpu.dcache.tags.ageTaskId_1024::0            4                       # Occupied blocks per task id, per block age (Count)
system.cpu.dcache.tags.ageTaskId_1024::1           60                       # Occupied blocks per task id, per block age (Count)
system.cpu.dcache.tags.ageTaskId_1024::2          360                       # Occupied blocks per task id, per block age (Count)
system.cpu.dcache.tags.ageTaskId_1024::3           45                       # Occupied blocks per task id, per block age (Count)
system.cpu.dcache.tags.ageTaskId_1024::4           43                       # Occupied blocks per task id, per block age (Count)
system.cpu.dcache.tags.ratioOccsTaskId::1024            1                       # Ratio of occupied blocks and all blocks, per task id (Ratio)
system.cpu.dcache.tags.tagAccesses           90952932                       # Number of tag accesses (Count)
system.cpu.dcache.tags.dataAccesses          90952932                       # Number of data accesses (Count)
system.cpu.dcache.tags.power_state.pwrStateResidencyTicks::UNDEFINED  62793091000                       # Cumulative time (in ticks) in various power states (Tick)
system.cpu.decode.idleCycles                 15182356                       # Number of cycles decode is idle (Cycle)
system.cpu.decode.blockedCycles              12594343                       # Number of cycles decode is blocked (Cycle)
system.cpu.decode.runCycles                  29554669                       # Number of cycles decode is running (Cycle)
system.cpu.decode.unblockCycles               2451032                       # Number of cycles decode is unblocking (Cycle)
system.cpu.decode.squashCycles                2984614                       # Number of cycles decode is squashing (Cycle)
system.cpu.decode.branchResolved              4288955                       # Number of times decode resolved a branch (Count)
system.cpu.decode.branchMispred                  5132                       # Number of times decode detected a branch misprediction (Count)
system.cpu.decode.decodedInsts              227054900                       # Number of instructions handled by decode (Count)
system.cpu.decode.squashedInsts                 36707                       # Number of squashed instructions handled by decode (Count)
system.cpu.fetch.icacheStallCycles           18507158                       # Number of cycles fetch is stalled on an Icache miss (Cycle)
system.cpu.fetch.insts                      126236090                       # Number of instructions fetch has processed (Count)
system.cpu.fetch.branches                    29446182                       # Number of branches that fetch encountered (Count)
system.cpu.fetch.predictedBranches            6443803                       # Number of branches that fetch has predicted taken (Count)
system.cpu.fetch.cycles                      40328968                       # Number of cycles fetch has run and was not squashing or blocked (Cycle)
system.cpu.fetch.squashCycles                 5979394                       # Number of cycles fetch has spent squashing (Cycle)
system.cpu.fetch.miscStallCycles                76130                       # Number of cycles fetch has spent waiting on interrupts, or bad addresses, or out of MSHRs (Cycle)
system.cpu.fetch.pendingTrapStallCycles        865017                       # Number of stall cycles due to pending traps (Cycle)
system.cpu.fetch.icacheWaitRetryStallCycles           44                       # Number of stall cycles due to full MSHR (Cycle)
system.cpu.fetch.cacheLines                  16606872                       # Number of cache lines fetched (Count)
system.cpu.fetch.icacheSquashes                694991                       # Number of outstanding Icache misses that were squashed (Count)
system.cpu.fetch.nisnDist::samples           62767014                       # Number of instructions fetched each cycle (Total) (Count)
system.cpu.fetch.nisnDist::mean              3.846202                       # Number of instructions fetched each cycle (Total) (Count)
system.cpu.fetch.nisnDist::stdev             3.676629                       # Number of instructions fetched each cycle (Total) (Count)
system.cpu.fetch.nisnDist::underflows               0      0.00%      0.00% # Number of instructions fetched each cycle (Total) (Count)
system.cpu.fetch.nisnDist::0                 26248376     41.82%     41.82% # Number of instructions fetched each cycle (Total) (Count)
system.cpu.fetch.nisnDist::1                  1387202      2.21%     44.03% # Number of instructions fetched each cycle (Total) (Count)
system.cpu.fetch.nisnDist::2                  2215921      3.53%     47.56% # Number of instructions fetched each cycle (Total) (Count)
system.cpu.fetch.nisnDist::3                  1588064      2.53%     50.09% # Number of instructions fetched each cycle (Total) (Count)
system.cpu.fetch.nisnDist::4                  2714942      4.33%     54.41% # Number of instructions fetched each cycle (Total) (Count)
system.cpu.fetch.nisnDist::5                  1420907      2.26%     56.68% # Number of instructions fetched each cycle (Total) (Count)
system.cpu.fetch.nisnDist::6                  1603558      2.55%     59.23% # Number of instructions fetched each cycle (Total) (Count)
system.cpu.fetch.nisnDist::7                  1458614      2.32%     61.56% # Number of instructions fetched each cycle (Total) (Count)
system.cpu.fetch.nisnDist::8                 24129430     38.44%    100.00% # Number of instructions fetched each cycle (Total) (Count)
system.cpu.fetch.nisnDist::overflows                0      0.00%    100.00% # Number of instructions fetched each cycle (Total) (Count)
system.cpu.fetch.nisnDist::min_value                0                       # Number of instructions fetched each cycle (Total) (Count)
system.cpu.fetch.nisnDist::max_value                8                       # Number of instructions fetched each cycle (Total) (Count)
system.cpu.fetch.nisnDist::total             62767014                       # Number of instructions fetched each cycle (Total) (Count)
system.cpu.fetch.branchRate                  0.468940                       # Number of branch fetches per cycle (Ratio)
system.cpu.fetch.rate                        2.010350                       # Number of inst fetches per cycle ((Count/Cycle))
system.cpu.icache.demandHits::cpu.inst       16605784                       # number of demand (read+write) hits (Count)
system.cpu.icache.demandHits::total          16605784                       # number of demand (read+write) hits (Count)
system.cpu.icache.overallHits::cpu.inst      16605784                       # number of overall hits (Count)
system.cpu.icache.overallHits::total         16605784                       # number of overall hits (Count)
system.cpu.icache.demandMisses::cpu.inst         1088                       # number of demand (read+write) misses (Count)
system.cpu.icache.demandMisses::total            1088                       # number of demand (read+write) misses (Count)
system.cpu.icache.overallMisses::cpu.inst         1088                       # number of overall misses (Count)
system.cpu.icache.overallMisses::total           1088                       # number of overall misses (Count)
system.cpu.icache.demandMissLatency::cpu.inst     86788000                       # number of demand (read+write) miss ticks (Tick)
system.cpu.icache.demandMissLatency::total     86788000                       # number of demand (read+write) miss ticks (Tick)
system.cpu.icache.overallMissLatency::cpu.inst     86788000                       # number of overall miss ticks (Tick)
system.cpu.icache.overallMissLatency::total     86788000                       # number of overall miss ticks (Tick)
system.cpu.icache.demandAccesses::cpu.inst     16606872                       # number of demand (read+write) accesses (Count)
system.cpu.icache.demandAccesses::total      16606872                       # number of demand (read+write) accesses (Count)
system.cpu.icache.overallAccesses::cpu.inst     16606872                       # number of overall (read+write) accesses (Count)
system.cpu.icache.overallAccesses::total     16606872                       # number of overall (read+write) accesses (Count)
system.cpu.icache.demandMissRate::cpu.inst     0.000066                       # miss rate for demand accesses (Ratio)
system.cpu.icache.demandMissRate::total      0.000066                       # miss rate for demand accesses (Ratio)
system.cpu.icache.overallMissRate::cpu.inst     0.000066                       # miss rate for overall accesses (Ratio)
system.cpu.icache.overallMissRate::total     0.000066                       # miss rate for overall accesses (Ratio)
system.cpu.icache.demandAvgMissLatency::cpu.inst 79768.382353                       # average overall miss latency in ticks ((Tick/Count))
system.cpu.icache.demandAvgMissLatency::total 79768.382353                       # average overall miss latency in ticks ((Tick/Count))
system.cpu.icache.overallAvgMissLatency::cpu.inst 79768.382353                       # average overall miss latency ((Tick/Count))
system.cpu.icache.overallAvgMissLatency::total 79768.382353                       # average overall miss latency ((Tick/Count))
system.cpu.icache.blockedCycles::no_mshrs          202                       # number of cycles access was blocked (Cycle)
system.cpu.icache.blockedCycles::no_targets            0                       # number of cycles access was blocked (Cycle)
system.cpu.icache.blockedCauses::no_mshrs            5                       # number of times access was blocked (Count)
system.cpu.icache.blockedCauses::no_targets            0                       # number of times access was blocked (Count)
system.cpu.icache.avgBlocked::no_mshrs      40.400000                       # average number of cycles each access was blocked ((Cycle/Count))
system.cpu.icache.avgBlocked::no_targets          nan                       # average number of cycles each access was blocked ((Cycle/Count))
system.cpu.icache.demandMshrHits::cpu.inst          257                       # number of demand (read+write) MSHR hits (Count)
system.cpu.icache.demandMshrHits::total           257                       # number of demand (read+write) MSHR hits (Count)
system.cpu.icache.overallMshrHits::cpu.inst          257                       # number of overall MSHR hits (Count)
system.cpu.icache.overallMshrHits::total          257                       # number of overall MSHR hits (Count)
system.cpu.icache.demandMshrMisses::cpu.inst          831                       # number of demand (read+write) MSHR misses (Count)
system.cpu.icache.demandMshrMisses::total          831                       # number of demand (read+write) MSHR misses (Count)
system.cpu.icache.overallMshrMisses::cpu.inst          831                       # number of overall MSHR misses (Count)
system.cpu.icache.overallMshrMisses::total          831                       # number of overall MSHR misses (Count)
system.cpu.icache.demandMshrMissLatency::cpu.inst     67366000                       # number of demand (read+write) MSHR miss ticks (Tick)
system.cpu.icache.demandMshrMissLatency::total     67366000                       # number of demand (read+write) MSHR miss ticks (Tick)
system.cpu.icache.overallMshrMissLatency::cpu.inst     67366000                       # number of overall MSHR miss ticks (Tick)
system.cpu.icache.overallMshrMissLatency::total     67366000                       # number of overall MSHR miss ticks (Tick)
system.cpu.icache.demandMshrMissRate::cpu.inst     0.000050                       # mshr miss ratio for demand accesses (Ratio)
system.cpu.icache.demandMshrMissRate::total     0.000050                       # mshr miss ratio for demand accesses (Ratio)
system.cpu.icache.overallMshrMissRate::cpu.inst     0.000050                       # mshr miss ratio for overall accesses (Ratio)
system.cpu.icache.overallMshrMissRate::total     0.000050                       # mshr miss ratio for overall accesses (Ratio)
system.cpu.icache.demandAvgMshrMissLatency::cpu.inst 81066.185319                       # average overall mshr miss latency ((Tick/Count))
system.cpu.icache.demandAvgMshrMissLatency::total 81066.185319                       # average overall mshr miss latency ((Tick/Count))
system.cpu.icache.overallAvgMshrMissLatency::cpu.inst 81066.185319                       # average overall mshr miss latency ((Tick/Count))
system.cpu.icache.overallAvgMshrMissLatency::total 81066.185319                       # average overall mshr miss latency ((Tick/Count))
system.cpu.icache.replacements                    400                       # number of replacements (Count)
system.cpu.icache.ReadReq.hits::cpu.inst     16605784                       # number of ReadReq hits (Count)
system.cpu.icache.ReadReq.hits::total        16605784                       # number of ReadReq hits (Count)
system.cpu.icache.ReadReq.misses::cpu.inst         1088                       # number of ReadReq misses (Count)
system.cpu.icache.ReadReq.misses::total          1088                       # number of ReadReq misses (Count)
system.cpu.icache.ReadReq.missLatency::cpu.inst     86788000                       # number of ReadReq miss ticks (Tick)
system.cpu.icache.ReadReq.missLatency::total     86788000                       # number of ReadReq miss ticks (Tick)
system.cpu.icache.ReadReq.accesses::cpu.inst     16606872                       # number of ReadReq accesses(hits+misses) (Count)
system.cpu.icache.ReadReq.accesses::total     16606872                       # number of ReadReq accesses(hits+misses) (Count)
system.cpu.icache.ReadReq.missRate::cpu.inst     0.000066                       # miss rate for ReadReq accesses (Ratio)
system.cpu.icache.ReadReq.missRate::total     0.000066                       # miss rate for ReadReq accesses (Ratio)
system.cpu.icache.ReadReq.avgMissLatency::cpu.inst 79768.382353                       # average ReadReq miss latency ((Tick/Count))
system.cpu.icache.ReadReq.avgMissLatency::total 79768.382353                       # average ReadReq miss latency ((Tick/Count))
system.cpu.icache.ReadReq.mshrHits::cpu.inst          257                       # number of ReadReq MSHR hits (Count)
system.cpu.icache.ReadReq.mshrHits::total          257                       # number of ReadReq MSHR hits (Count)
system.cpu.icache.ReadReq.mshrMisses::cpu.inst          831                       # number of ReadReq MSHR misses (Count)
system.cpu.icache.ReadReq.mshrMisses::total          831                       # number of ReadReq MSHR misses (Count)
system.cpu.icache.ReadReq.mshrMissLatency::cpu.inst     67366000                       # number of ReadReq MSHR miss ticks (Tick)
system.cpu.icache.ReadReq.mshrMissLatency::total     67366000                       # number of ReadReq MSHR miss ticks (Tick)
system.cpu.icache.ReadReq.mshrMissRate::cpu.inst     0.000050                       # mshr miss rate for ReadReq accesses (Ratio)
system.cpu.icache.ReadReq.mshrMissRate::total     0.000050                       # mshr miss rate for ReadReq accesses (Ratio)
system.cpu.icache.ReadReq.avgMshrMissLatency::cpu.inst 81066.185319                       # average ReadReq mshr miss latency ((Tick/Count))
system.cpu.icache.ReadReq.avgMshrMissLatency::total 81066.185319                       # average ReadReq mshr miss latency ((Tick/Count))
system.cpu.icache.power_state.pwrStateResidencyTicks::UNDEFINED  62793091000                       # Cumulative time (in ticks) in various power states (Tick)
system.cpu.icache.tags.tagsInUse           430.301676                       # Average ticks per tags in use ((Tick/Count))
system.cpu.icache.tags.totalRefs             16606615                       # Total number of references to valid blocks. (Count)
system.cpu.icache.tags.sampledRefs                831                       # Sample count of references to valid blocks. (Count)
system.cpu.icache.tags.avgRefs           19983.892900                       # Average number of references to valid blocks. ((Count/Count))
system.cpu.icache.tags.warmupTick              107000                       # The tick when the warmup percentage was hit. (Tick)
system.cpu.icache.tags.occupancies::cpu.inst   430.301676                       # Average occupied blocks per tick, per requestor ((Count/Tick))
system.cpu.icache.tags.avgOccs::cpu.inst     0.840433                       # Average percentage of cache occupancy ((Ratio/Tick))
system.cpu.icache.tags.avgOccs::total        0.840433                       # Average percentage of cache occupancy ((Ratio/Tick))
system.cpu.icache.tags.occupanciesTaskId::1024          431                       # Occupied blocks per task id (Count)
system.cpu.icache.tags.ageTaskId_1024::3            4                       # Occupied blocks per task id, per block age (Count)
system.cpu.icache.tags.ageTaskId_1024::4          427                       # Occupied blocks per task id, per block age (Count)
system.cpu.icache.tags.ratioOccsTaskId::1024     0.841797                       # Ratio of occupied blocks and all blocks, per task id (Ratio)
system.cpu.icache.tags.tagAccesses           33214575                       # Number of tag accesses (Count)
system.cpu.icache.tags.dataAccesses          33214575                       # Number of data accesses (Count)
system.cpu.icache.tags.power_state.pwrStateResidencyTicks::UNDEFINED  62793091000                       # Cumulative time (in ticks) in various power states (Tick)
system.cpu.iew.idleCycles                           0                       # Number of cycles IEW is idle (Cycle)
system.cpu.iew.squashCycles                   2984614                       # Number of cycles IEW is squashing (Cycle)
system.cpu.iew.blockCycles                   10300057                       # Number of cycles IEW is blocking (Cycle)
system.cpu.iew.unblockCycles                   922416                       # Number of cycles IEW is unblocking (Cycle)
system.cpu.iew.dispatchedInsts              186570682                       # Number of instructions dispatched to IQ (Count)
system.cpu.iew.dispSquashedInsts                  345                       # Number of squashed instructions skipped by dispatch (Count)
system.cpu.iew.dispLoadInsts                 22059281                       # Number of dispatched load instructions (Count)
system.cpu.iew.dispStoreInsts                14455922                       # Number of dispatched store instructions (Count)
system.cpu.iew.dispNonSpecInsts                 51303                       # Number of dispatched non-speculative instructions (Count)
system.cpu.iew.iqFullEvents                        23                       # Number of times the IQ has become full, causing a stall (Count)
system.cpu.iew.lsqFullEvents                   916769                       # Number of times the LSQ has become full, causing a stall (Count)
system.cpu.iew.memOrderViolationEvents           1262                       # Number of memory order violations (Count)
system.cpu.iew.predictedTakenIncorrect         182905                       # Number of branches that were predicted taken incorrectly (Count)
system.cpu.iew.predictedNotTakenIncorrect      3520804                       # Number of branches that were predicted not taken incorrectly (Count)
system.cpu.iew.branchMispredicts              3703709                       # Number of branch mispredicts detected at execute (Count)
system.cpu.iew.instsToCommit                153137166                       # Cumulative count of insts sent to commit (Count)
system.cpu.iew.writebackCount               151474955                       # Cumulative count of insts written-back (Count)
system.cpu.iew.producerInst                 108109216                       # Number of instructions producing a value (Count)
system.cpu.iew.consumerInst                 167795982                       # Number of instructions consuming a value (Count)
system.cpu.iew.wbRate                        2.412287                       # Insts written-back per cycle ((Count/Cycle))
system.cpu.iew.wbFanout                      0.644290                       # Average fanout of values written-back ((Count/Count))
system.cpu.interrupts.clk_domain.clock          16000                       # Clock period in ticks (Tick)
system.cpu.lsq0.forwLoads                     1726545                       # Number of loads that had data forwarded from stores (Count)
system.cpu.lsq0.squashedLoads                11405921                       # Number of loads squashed (Count)
system.cpu.lsq0.ignoredResponses                25601                       # Number of memory responses ignored because the instruction is squashed (Count)
system.cpu.lsq0.memOrderViolation                1262                       # Number of memory ordering violations (Count)
system.cpu.lsq0.squashedStores                7492877                       # Number of stores squashed (Count)
system.cpu.lsq0.rescheduledLoads                    0                       # Number of loads that were rescheduled (Count)
system.cpu.lsq0.blockedByCache                     51                       # Number of times an access to memory failed due to the cache being blocked (Count)
system.cpu.lsq0.loadToUse::samples           10653360                       # Distribution of cycle latency between the first time a load is issued and its completion (Unspecified)
system.cpu.lsq0.loadToUse::mean              3.340725                       # Distribution of cycle latency between the first time a load is issued and its completion (Unspecified)
system.cpu.lsq0.loadToUse::stdev             3.718270                       # Distribution of cycle latency between the first time a load is issued and its completion (Unspecified)
system.cpu.lsq0.loadToUse::0-9               10632755     99.81%     99.81% # Distribution of cycle latency between the first time a load is issued and its completion (Unspecified)
system.cpu.lsq0.loadToUse::10-19                   59      0.00%     99.81% # Distribution of cycle latency between the first time a load is issued and its completion (Unspecified)
system.cpu.lsq0.loadToUse::20-29                 6447      0.06%     99.87% # Distribution of cycle latency between the first time a load is issued and its completion (Unspecified)
system.cpu.lsq0.loadToUse::30-39                   12      0.00%     99.87% # Distribution of cycle latency between the first time a load is issued and its completion (Unspecified)
system.cpu.lsq0.loadToUse::40-49                  617      0.01%     99.87% # Distribution of cycle latency between the first time a load is issued and its completion (Unspecified)
system.cpu.lsq0.loadToUse::50-59                   15      0.00%     99.87% # Distribution of cycle latency between the first time a load is issued and its completion (Unspecified)
system.cpu.lsq0.loadToUse::60-69                  175      0.00%     99.88% # Distribution of cycle latency between the first time a load is issued and its completion (Unspecified)
system.cpu.lsq0.loadToUse::70-79                   32      0.00%     99.88% # Distribution of cycle latency between the first time a load is issued and its completion (Unspecified)
system.cpu.lsq0.loadToUse::80-89                 1993      0.02%     99.89% # Distribution of cycle latency between the first time a load is issued and its completion (Unspecified)
system.cpu.lsq0.loadToUse::90-99                 8735      0.08%     99.98% # Distribution of cycle latency between the first time a load is issued and its completion (Unspecified)
system.cpu.lsq0.loadToUse::100-109                 48      0.00%     99.98% # Distribution of cycle latency between the first time a load is issued and its completion (Unspecified)
system.cpu.lsq0.loadToUse::110-119               1643      0.02%     99.99% # Distribution of cycle latency between the first time a load is issued and its completion (Unspecified)
system.cpu.lsq0.loadToUse::120-129                175      0.00%     99.99% # Distribution of cycle latency between the first time a load is issued and its completion (Unspecified)
system.cpu.lsq0.loadToUse::130-139                 71      0.00%     99.99% # Distribution of cycle latency between the first time a load is issued and its completion (Unspecified)
system.cpu.lsq0.loadToUse::140-149                 70      0.00%    100.00% # Distribution of cycle latency between the first time a load is issued and its completion (Unspecified)
system.cpu.lsq0.loadToUse::150-159                 56      0.00%    100.00% # Distribution of cycle latency between the first time a load is issued and its completion (Unspecified)
system.cpu.lsq0.loadToUse::160-169                 48      0.00%    100.00% # Distribution of cycle latency between the first time a load is issued and its completion (Unspecified)
system.cpu.lsq0.loadToUse::170-179                 49      0.00%    100.00% # Distribution of cycle latency between the first time a load is issued and its completion (Unspecified)
system.cpu.lsq0.loadToUse::180-189                 29      0.00%    100.00% # Distribution of cycle latency between the first time a load is issued and its completion (Unspecified)
system.cpu.lsq0.loadToUse::190-199                 47      0.00%    100.00% # Distribution of cycle latency between the first time a load is issued and its completion (Unspecified)
system.cpu.lsq0.loadToUse::200-209                 29      0.00%    100.00% # Distribution of cycle latency between the first time a load is issued and its completion (Unspecified)
system.cpu.lsq0.loadToUse::210-219                 43      0.00%    100.00% # Distribution of cycle latency between the first time a load is issued and its completion (Unspecified)
system.cpu.lsq0.loadToUse::220-229                 24      0.00%    100.00% # Distribution of cycle latency between the first time a load is issued and its completion (Unspecified)
[...]
system.mem_ctrl.dram.bytesWritten::total      1614464                       # Number of bytes written to this memory (Byte)
system.mem_ctrl.dram.numReads::cpu.inst           605                       # Number of read requests responded to by this memory (Count)
system.mem_ctrl.dram.numReads::cpu.data         58060                       # Number of read requests responded to by this memory (Count)
system.mem_ctrl.dram.numReads::total            58665                       # Number of read requests responded to by this memory (Count)
system.mem_ctrl.dram.numWrites::writebacks        25226                       # Number of write requests responded to by this memory (Count)
system.mem_ctrl.dram.numWrites::total           25226                       # Number of write requests responded to by this memory (Count)
system.mem_ctrl.dram.bwRead::cpu.inst          616628                       # Total read bandwidth from this memory ((Byte/Second))
system.mem_ctrl.dram.bwRead::cpu.data        59175937                       # Total read bandwidth from this memory ((Byte/Second))
system.mem_ctrl.dram.bwRead::total           59792565                       # Total read bandwidth from this memory ((Byte/Second))
system.mem_ctrl.dram.bwInstRead::cpu.inst       616628                       # Instruction read bandwidth from this memory ((Byte/Second))
system.mem_ctrl.dram.bwInstRead::total         616628                       # Instruction read bandwidth from this memory ((Byte/Second))
system.mem_ctrl.dram.bwWrite::writebacks     25710854                       # Write bandwidth from this memory ((Byte/Second))
system.mem_ctrl.dram.bwWrite::total          25710854                       # Write bandwidth from this memory ((Byte/Second))
system.mem_ctrl.dram.bwTotal::writebacks     25710854                       # Total bandwidth to/from this memory ((Byte/Second))
system.mem_ctrl.dram.bwTotal::cpu.inst         616628                       # Total bandwidth to/from this memory ((Byte/Second))
system.mem_ctrl.dram.bwTotal::cpu.data       59175937                       # Total bandwidth to/from this memory ((Byte/Second))
system.mem_ctrl.dram.bwTotal::total          85503419                       # Total bandwidth to/from this memory ((Byte/Second))
system.mem_ctrl.dram.readBursts                 58662                       # Number of DRAM read bursts (Count)
system.mem_ctrl.dram.writeBursts                25197                       # Number of DRAM write bursts (Count)
system.mem_ctrl.dram.perBankRdBursts::0          3689                       # Per bank write bursts (Count)
system.mem_ctrl.dram.perBankRdBursts::1          3676                       # Per bank write bursts (Count)
system.mem_ctrl.dram.perBankRdBursts::2          3735                       # Per bank write bursts (Count)
system.mem_ctrl.dram.perBankRdBursts::3          3651                       # Per bank write bursts (Count)
system.mem_ctrl.dram.perBankRdBursts::4          3672                       # Per bank write bursts (Count)
system.mem_ctrl.dram.perBankRdBursts::5          3705                       # Per bank write bursts (Count)
system.mem_ctrl.dram.perBankRdBursts::6          3724                       # Per bank write bursts (Count)
system.mem_ctrl.dram.perBankRdBursts::7          3568                       # Per bank write bursts (Count)
system.mem_ctrl.dram.perBankRdBursts::8          3624                       # Per bank write bursts (Count)
system.mem_ctrl.dram.perBankRdBursts::9          3536                       # Per bank write bursts (Count)
system.mem_ctrl.dram.perBankRdBursts::10         3718                       # Per bank write bursts (Count)
system.mem_ctrl.dram.perBankRdBursts::11         3658                       # Per bank write bursts (Count)
system.mem_ctrl.dram.perBankRdBursts::12         3665                       # Per bank write bursts (Count)
system.mem_ctrl.dram.perBankRdBursts::13         3726                       # Per bank write bursts (Count)
system.mem_ctrl.dram.perBankRdBursts::14         3650                       # Per bank write bursts (Count)
system.mem_ctrl.dram.perBankRdBursts::15         3665                       # Per bank write bursts (Count)
system.mem_ctrl.dram.perBankWrBursts::0          1582                       # Per bank write bursts (Count)
system.mem_ctrl.dram.perBankWrBursts::1          1604                       # Per bank write bursts (Count)
system.mem_ctrl.dram.perBankWrBursts::2          1651                       # Per bank write bursts (Count)
system.mem_ctrl.dram.perBankWrBursts::3          1593                       # Per bank write bursts (Count)
system.mem_ctrl.dram.perBankWrBursts::4          1613                       # Per bank write bursts (Count)
system.mem_ctrl.dram.perBankWrBursts::5          1600                       # Per bank write bursts (Count)
system.mem_ctrl.dram.perBankWrBursts::6          1612                       # Per bank write bursts (Count)
system.mem_ctrl.dram.perBankWrBursts::7          1457                       # Per bank write bursts (Count)
system.mem_ctrl.dram.perBankWrBursts::8          1510                       # Per bank write bursts (Count)
system.mem_ctrl.dram.perBankWrBursts::9          1461                       # Per bank write bursts (Count)
system.mem_ctrl.dram.perBankWrBursts::10         1597                       # Per bank write bursts (Count)
system.mem_ctrl.dram.perBankWrBursts::11         1546                       # Per bank write bursts (Count)
system.mem_ctrl.dram.perBankWrBursts::12         1585                       # Per bank write bursts (Count)
system.mem_ctrl.dram.perBankWrBursts::13         1609                       # Per bank write bursts (Count)
system.mem_ctrl.dram.perBankWrBursts::14         1582                       # Per bank write bursts (Count)
system.mem_ctrl.dram.perBankWrBursts::15         1595                       # Per bank write bursts (Count)
system.mem_ctrl.dram.totQLat                473506250                       # Total ticks spent queuing (Tick)
system.mem_ctrl.dram.totBusLat              293310000                       # Total ticks spent in databus transfers (Tick)
system.mem_ctrl.dram.totMemAccLat          1573418750                       # Total ticks spent from burst creation until serviced by the DRAM (Tick)
system.mem_ctrl.dram.avgQLat                  8071.77                       # Average queueing delay per DRAM burst ((Tick/Count))
system.mem_ctrl.dram.avgBusLat                5000.00                       # Average bus latency per DRAM burst ((Tick/Count))
system.mem_ctrl.dram.avgMemAccLat            26821.77                       # Average memory access latency per DRAM burst ((Tick/Count))
system.mem_ctrl.dram.readRowHits                45704                       # Number of row buffer hits during reads (Count)
system.mem_ctrl.dram.writeRowHits               21324                       # Number of row buffer hits during writes (Count)
system.mem_ctrl.dram.readRowHitRate             77.91                       # Row buffer hit rate for reads (Ratio)
system.mem_ctrl.dram.writeRowHitRate            84.63                       # Row buffer hit rate for writes (Ratio)
system.mem_ctrl.dram.bytesPerActivate::samples        16830                       # Bytes accessed per row activation (Byte)
system.mem_ctrl.dram.bytesPerActivate::mean   318.885799                       # Bytes accessed per row activation (Byte)
system.mem_ctrl.dram.bytesPerActivate::gmean   218.213425                       # Bytes accessed per row activation (Byte)
system.mem_ctrl.dram.bytesPerActivate::stdev   290.691182                       # Bytes accessed per row activation (Byte)
system.mem_ctrl.dram.bytesPerActivate::0-127         3403     20.22%     20.22% # Bytes accessed per row activation (Byte)
system.mem_ctrl.dram.bytesPerActivate::128-255         7366     43.77%     63.99% # Bytes accessed per row activation (Byte)
system.mem_ctrl.dram.bytesPerActivate::256-383         1356      8.06%     72.04% # Bytes accessed per row activation (Byte)
system.mem_ctrl.dram.bytesPerActivate::384-511          798      4.74%     76.79% # Bytes accessed per row activation (Byte)
system.mem_ctrl.dram.bytesPerActivate::512-639          846      5.03%     81.81% # Bytes accessed per row activation (Byte)
system.mem_ctrl.dram.bytesPerActivate::640-767          633      3.76%     85.57% # Bytes accessed per row activation (Byte)
system.mem_ctrl.dram.bytesPerActivate::768-895          831      4.94%     90.51% # Bytes accessed per row activation (Byte)
system.mem_ctrl.dram.bytesPerActivate::896-1023          520      3.09%     93.60% # Bytes accessed per row activation (Byte)
system.mem_ctrl.dram.bytesPerActivate::1024-1151         1077      6.40%    100.00% # Bytes accessed per row activation (Byte)
system.mem_ctrl.dram.bytesPerActivate::total        16830                       # Bytes accessed per row activation (Byte)
system.mem_ctrl.dram.bytesRead                3754368                       # Total bytes read (Byte)
system.mem_ctrl.dram.bytesWritten             1612608                       # Total bytes written (Byte)
system.mem_ctrl.dram.avgRdBW                59.789508                       # Average DRAM read bandwidth in MiBytes/s ((Byte/Second))
system.mem_ctrl.dram.avgWrBW                25.681297                       # Average DRAM write bandwidth in MiBytes/s ((Byte/Second))
system.mem_ctrl.dram.peakBW                  12800.00                       # Theoretical peak bandwidth in MiByte/s ((Byte/Second))
system.mem_ctrl.dram.busUtil                     0.67                       # Data bus utilization in percentage (Ratio)
system.mem_ctrl.dram.busUtilRead                 0.47                       # Data bus utilization in percentage for reads (Ratio)
system.mem_ctrl.dram.busUtilWrite                0.20                       # Data bus utilization in percentage for writes (Ratio)
system.mem_ctrl.dram.pageHitRate                79.93                       # Row buffer hit rate, read and write combined (Ratio)
system.mem_ctrl.dram.power_state.pwrStateResidencyTicks::UNDEFINED  62793091000                       # Cumulative time (in ticks) in various power states (Tick)
system.mem_ctrl.dram.rank0.actEnergy         60490080                       # Energy for activate commands per rank (pJ) (Joule)
system.mem_ctrl.dram.rank0.preEnergy         32147445                       # Energy for precharge commands per rank (pJ) (Joule)
system.mem_ctrl.dram.rank0.readEnergy       210058800                       # Energy for read commands per rank (pJ) (Joule)
system.mem_ctrl.dram.rank0.writeEnergy       66356640                       # Energy for write commands per rank (pJ) (Joule)
system.mem_ctrl.dram.rank0.refreshEnergy 4956456960.000001                       # Energy for refresh commands per rank (pJ) (Joule)
system.mem_ctrl.dram.rank0.actBackEnergy  14309189370                       # Energy for active background per rank (pJ) (Joule)
system.mem_ctrl.dram.rank0.preBackEnergy  12062703360                       # Energy for precharge background per rank (pJ) (Joule)
system.mem_ctrl.dram.rank0.actPowerDownEnergy            0                       # Energy for active power-down per rank (pJ) (Joule)
system.mem_ctrl.dram.rank0.prePowerDownEnergy            0                       # Energy for precharge power-down per rank (pJ) (Joule)
system.mem_ctrl.dram.rank0.selfRefreshEnergy            0                       # Energy for self refresh per rank (pJ) (Joule)
system.mem_ctrl.dram.rank0.totalEnergy    31697402655                       # Total energy per rank (pJ) (Joule)
system.mem_ctrl.dram.rank0.averagePower    504.791246                       # Core power per rank (mW) (Watt)
system.mem_ctrl.dram.rank0.totalIdleTime            0                       # Total Idle time Per DRAM Rank (Tick)
system.mem_ctrl.dram.rank0.pwrStateTime::IDLE  31221983000                       # Time in different power states (Tick)
system.mem_ctrl.dram.rank0.pwrStateTime::REF   2096640000                       # Time in different power states (Tick)
system.mem_ctrl.dram.rank0.pwrStateTime::SREF            0                       # Time in different power states (Tick)
system.mem_ctrl.dram.rank0.pwrStateTime::PRE_PDN            0                       # Time in different power states (Tick)
system.mem_ctrl.dram.rank0.pwrStateTime::ACT  29474468000                       # Time in different power states (Tick)
system.mem_ctrl.dram.rank0.pwrStateTime::ACT_PDN            0                       # Time in different power states (Tick)
system.mem_ctrl.dram.rank1.actEnergy         59683260                       # Energy for activate commands per rank (pJ) (Joule)
system.mem_ctrl.dram.rank1.preEnergy         31722405                       # Energy for precharge commands per rank (pJ) (Joule)
system.mem_ctrl.dram.rank1.readEnergy       208787880                       # Energy for read commands per rank (pJ) (Joule)
system.mem_ctrl.dram.rank1.writeEnergy       65171700                       # Energy for write commands per rank (pJ) (Joule)
system.mem_ctrl.dram.rank1.refreshEnergy 4956456960.000001                       # Energy for refresh commands per rank (pJ) (Joule)
system.mem_ctrl.dram.rank1.actBackEnergy  13629020910                       # Energy for active background per rank (pJ) (Joule)
system.mem_ctrl.dram.rank1.preBackEnergy  12635476800                       # Energy for precharge background per rank (pJ) (Joule)
system.mem_ctrl.dram.rank1.actPowerDownEnergy            0                       # Energy for active power-down per rank (pJ) (Joule)
system.mem_ctrl.dram.rank1.prePowerDownEnergy            0                       # Energy for precharge power-down per rank (pJ) (Joule)
system.mem_ctrl.dram.rank1.selfRefreshEnergy            0                       # Energy for self refresh per rank (pJ) (Joule)
system.mem_ctrl.dram.rank1.totalEnergy    31586319915                       # Total energy per rank (pJ) (Joule)
system.mem_ctrl.dram.rank1.averagePower    503.022218                       # Core power per rank (mW) (Watt)
system.mem_ctrl.dram.rank1.totalIdleTime            0                       # Total Idle time Per DRAM Rank (Tick)
system.mem_ctrl.dram.rank1.pwrStateTime::IDLE  32719162250                       # Time in different power states (Tick)
system.mem_ctrl.dram.rank1.pwrStateTime::REF   2096640000                       # Time in different power states (Tick)
system.mem_ctrl.dram.rank1.pwrStateTime::SREF            0                       # Time in different power states (Tick)
system.mem_ctrl.dram.rank1.pwrStateTime::PRE_PDN            0                       # Time in different power states (Tick)
system.mem_ctrl.dram.rank1.pwrStateTime::ACT  27977288750                       # Time in different power states (Tick)
system.mem_ctrl.dram.rank1.pwrStateTime::ACT_PDN            0                       # Time in different power states (Tick)
system.mem_ctrl.power_state.pwrStateResidencyTicks::UNDEFINED  62793091000                       # Cumulative time (in ticks) in various power states (Tick)
system.membus.transDist::ReadResp               11445                       # Transaction distribution (Count)
system.membus.transDist::WritebackDirty         25226                       # Transaction distribution (Count)
system.membus.transDist::CleanEvict               218                       # Transaction distribution (Count)
system.membus.transDist::ReadExReq              47220                       # Transaction distribution (Count)
system.membus.transDist::ReadExResp             47220                       # Transaction distribution (Count)
system.membus.transDist::ReadSharedReq          11445                       # Transaction distribution (Count)
system.membus.pktCount_system.l2cache.mem_side_port::system.mem_ctrl.port       142774                       # Packet count per connected requestor and responder (Count)
system.membus.pktCount_system.l2cache.mem_side_port::total       142774                       # Packet count per connected requestor and responder (Count)
system.membus.pktCount::total                  142774                       # Packet count per connected requestor and responder (Count)
system.membus.pktSize_system.l2cache.mem_side_port::system.mem_ctrl.port      5369024                       # Cumulative packet size per connected requestor and responder (Byte)
system.membus.pktSize_system.l2cache.mem_side_port::total      5369024                       # Cumulative packet size per connected requestor and responder (Byte)
system.membus.pktSize::total                  5369024                       # Cumulative packet size per connected requestor and responder (Byte)
system.membus.snoops                                0                       # Total snoops (Count)
system.membus.snoopTraffic                          0                       # Total snoop traffic (Byte)
system.membus.snoopFanout::samples              58665                       # Request fanout histogram (Count)
system.membus.snoopFanout::mean                     0                       # Request fanout histogram (Count)
system.membus.snoopFanout::stdev                    0                       # Request fanout histogram (Count)
system.membus.snoopFanout::underflows               0      0.00%      0.00% # Request fanout histogram (Count)
system.membus.snoopFanout::0                    58665    100.00%    100.00% # Request fanout histogram (Count)
system.membus.snoopFanout::1                        0      0.00%    100.00% # Request fanout histogram (Count)
system.membus.snoopFanout::overflows                0      0.00%    100.00% # Request fanout histogram (Count)
system.membus.snoopFanout::min_value                0                       # Request fanout histogram (Count)
system.membus.snoopFanout::max_value                0                       # Request fanout histogram (Count)
system.membus.snoopFanout::total                58665                       # Request fanout histogram (Count)
system.membus.power_state.pwrStateResidencyTicks::UNDEFINED  62793091000                       # Cumulative time (in ticks) in various power states (Tick)
system.membus.reqLayer2.occupancy           185013000                       # Layer occupancy (ticks) (Tick)
system.membus.reqLayer2.utilization               0.0                       # Layer utilization (Ratio)
system.membus.respLayer0.occupancy          310729000                       # Layer occupancy (ticks) (Tick)
system.membus.respLayer0.utilization              0.0                       # Layer utilization (Ratio)
system.membus.snoop_filter.totRequests          84109                       # Total number of requests made to the snoop filter. (Count)
system.membus.snoop_filter.hitSingleRequests        25444                       # Number of requests hitting in the snoop filter with a single holder of the requested data. (Count)
system.membus.snoop_filter.hitMultiRequests            0                       # Number of requests hitting in the snoop filter with multiple (>1) holders of the requested data. (Count)
system.membus.snoop_filter.totSnoops                0                       # Total number of snoops made to the snoop filter. (Count)
system.membus.snoop_filter.hitSingleSnoops            0                       # Number of snoops hitting in the snoop filter with a single holder of the requested data. (Count)
system.membus.snoop_filter.hitMultiSnoops            0                       # Number of snoops hitting in the snoop filter with multiple (>1) holders of the requested data. (Count)
system.workload.inst.arm                            0                       # number of arm instructions executed (Count)
system.workload.inst.quiesce                        0                       # number of quiesce instructions executed (Count)

---------- End Simulation Statistics   ----------
