
---------- Begin Simulation Statistics ----------
simSeconds                                   0.432542                       # Number of seconds simulated (Second)
simTicks                                 432541660000                       # Number of ticks simulated (Tick)
finalTick                                432541660000                       # Number of ticks from beginning of simulation (restored from checkpoints and never reset) (Tick)
simFreq                                  1000000000000                       # The number of ticks per simulated second ((Tick/Second))
hostSeconds                                   1939.78                       # Real time elapsed on the host (Second)
hostTickRate                                222984431                       # The number of ticks simulated per host second (ticks/s) ((Tick/Second))
hostMemory                                    8531704                       # Number of bytes of host memory used (Byte)
simInsts                                     50000000                       # Number of instructions simulated (Count)
simOps                                       62368874                       # Number of ops (including micro ops) simulated (Count)
hostInstRate                                    25776                       # Simulator instruction rate (inst/s) ((Count/Second))
hostOpRate                                      32152                       # Simulator op (including micro ops) rate (op/s) ((Count/Second))
system.clk_domain.clock                          1000                       # Clock period in ticks (Tick)
system.clk_domain.voltage_domain.voltage            1                       # Voltage in Volts (Volt)
system.cpu.numCycles                        432541661                       # Number of cpu cycles simulated (Cycle)
system.cpu.numWorkItemsStarted                      0                       # Number of work items this cpu started (Count)
system.cpu.numWorkItemsCompleted                    0                       # Number of work items this cpu completed (Count)
system.cpu.instsAdded                       964504332                       # Number of instructions added to the IQ (excludes non-spec) (Count)
system.cpu.nonSpecInstsAdded                 21603716                       # Number of non-speculative instructions added to the IQ (Count)
system.cpu.instsIssued                      811620575                       # Number of instructions issued (Count)
system.cpu.squashedInstsIssued                2996151                       # Number of squashed instructions issued (Count)
system.cpu.squashedInstsExamined            923739174                       # Number of squashed instructions iterated over during squash; mainly for profiling (Count)
system.cpu.squashedOperandsExamined         936776818                       # Number of squashed operands that are examined and possibly removed from graph (Count)
system.cpu.squashedNonSpecRemoved            20714964                       # Number of squashed non-spec instructions that were removed (Count)
system.cpu.numIssuedDist::samples           432514298                       # Number of insts issued each cycle (Count)
system.cpu.numIssuedDist::mean               1.876517                       # Number of insts issued each cycle (Count)
system.cpu.numIssuedDist::stdev              2.703092                       # Number of insts issued each cycle (Count)
system.cpu.numIssuedDist::underflows                0      0.00%      0.00% # Number of insts issued each cycle (Count)
system.cpu.numIssuedDist::0                 264102550     61.06%     61.06% # Number of insts issued each cycle (Count)
system.cpu.numIssuedDist::1                  18021629      4.17%     65.23% # Number of insts issued each cycle (Count)
system.cpu.numIssuedDist::2                  14598919      3.38%     68.60% # Number of insts issued each cycle (Count)
system.cpu.numIssuedDist::3                  12840690      2.97%     71.57% # Number of insts issued each cycle (Count)
system.cpu.numIssuedDist::4                  18738237      4.33%     75.91% # Number of insts issued each cycle (Count)
system.cpu.numIssuedDist::5                  34813134      8.05%     83.95% # Number of insts issued each cycle (Count)
system.cpu.numIssuedDist::6                  27298869      6.31%     90.27% # Number of insts issued each cycle (Count)
system.cpu.numIssuedDist::7                  23734954      5.49%     95.75% # Number of insts issued each cycle (Count)
system.cpu.numIssuedDist::8                  18365316      4.25%    100.00% # Number of insts issued each cycle (Count)
system.cpu.numIssuedDist::overflows                 0      0.00%    100.00% # Number of insts issued each cycle (Count)
system.cpu.numIssuedDist::min_value                 0                       # Number of insts issued each cycle (Count)
system.cpu.numIssuedDist::max_value                 8                       # Number of insts issued each cycle (Count)
system.cpu.numIssuedDist::total             432514298                       # Number of insts issued each cycle (Count)
system.cpu.statFuBusy::No_OpClass                   0      0.00%      0.00% # attempts to use FU when none available (Count)
system.cpu.statFuBusy::IntAlu                 3019002      6.98%      6.98% # attempts to use FU when none available (Count)
system.cpu.statFuBusy::IntMult                      0      0.00%      6.98% # attempts to use FU when none available (Count)
system.cpu.statFuBusy::IntDiv                       0      0.00%      6.98% # attempts to use FU when none available (Count)
system.cpu.statFuBusy::FloatAdd                     0      0.00%      6.98% # attempts to use FU when none available (Count)
system.cpu.statFuBusy::FloatCmp                     0      0.00%      6.98% # attempts to use FU when none available (Count)
system.cpu.statFuBusy::FloatCvt                     0      0.00%      6.98% # attempts to use FU when none available (Count)
system.cpu.statFuBusy::FloatMult                    0      0.00%      6.98% # attempts to use FU when none available (Count)
system.cpu.statFuBusy::FloatMultAcc                 0      0.00%      6.98% # attempts to use FU when none available (Count)
system.cpu.statFuBusy::FloatDiv                     0      0.00%      6.98% # attempts to use FU when none available (Count)
system.cpu.statFuBusy::FloatMisc                    0      0.00%      6.98% # attempts to use FU when none available (Count)
system.cpu.statFuBusy::FloatSqrt                    0      0.00%      6.98% # attempts to use FU when none available (Count)
system.cpu.statFuBusy::SimdAdd                      0      0.00%      6.98% # attempts to use FU when none available (Count)
system.cpu.statFuBusy::SimdAddAcc                   0      0.00%      6.98% # attempts to use FU when none available (Count)
system.cpu.statFuBusy::SimdAlu                     17      0.00%      6.98% # attempts to use FU when none available (Count)
system.cpu.statFuBusy::SimdCmp                      0      0.00%      6.98% # attempts to use FU when none available (Count)
system.cpu.statFuBusy::SimdCvt                      5      0.00%      6.98% # attempts to use FU when none available (Count)
system.cpu.statFuBusy::SimdMisc                     3      0.00%      6.98% # attempts to use FU when none available (Count)
system.cpu.statFuBusy::SimdMult                     0      0.00%      6.98% # attempts to use FU when none available (Count)
system.cpu.statFuBusy::SimdMultAcc                  0      0.00%      6.98% # attempts to use FU when none available (Count)
system.cpu.statFuBusy::SimdShift                    0      0.00%      6.98% # attempts to use FU when none available (Count)
system.cpu.statFuBusy::SimdShiftAcc                 0      0.00%      6.98% # attempts to use FU when none available (Count)
system.cpu.statFuBusy::SimdDiv                      0      0.00%      6.98% # attempts to use FU when none available (Count)
system.cpu.statFuBusy::SimdSqrt                     0      0.00%      6.98% # attempts to use FU when none available (Count)
system.cpu.statFuBusy::SimdFloatAdd                 0      0.00%      6.98% # attempts to use FU when none available (Count)
system.cpu.statFuBusy::SimdFloatAlu                 0      0.00%      6.98% # attempts to use FU when none available (Count)
system.cpu.statFuBusy::SimdFloatCmp                 0      0.00%      6.98% # attempts to use FU when none available (Count)
system.cpu.statFuBusy::SimdFloatCvt                 0      0.00%      6.98% # attempts to use FU when none available (Count)
system.cpu.statFuBusy::SimdFloatDiv                 0      0.00%      6.98% # attempts to use FU when none available (Count)
system.cpu.statFuBusy::SimdFloatMisc                0      0.00%      6.98% # attempts to use FU when none available (Count)
system.cpu.statFuBusy::SimdFloatMult                0      0.00%      6.98% # attempts to use FU when none available (Count)
system.cpu.statFuBusy::SimdFloatMultAcc             0      0.00%      6.98% # attempts to use FU when none available (Count)
system.cpu.statFuBusy::SimdFloatSqrt                0      0.00%      6.98% # attempts to use FU when none available (Count)
system.cpu.statFuBusy::SimdReduceAdd                0      0.00%      6.98% # attempts to use FU when none available (Count)
system.cpu.statFuBusy::SimdReduceAlu                0      0.00%      6.98% # attempts to use FU when none available (Count)
system.cpu.statFuBusy::SimdReduceCmp                0      0.00%      6.98% # attempts to use FU when none available (Count)
system.cpu.statFuBusy::SimdFloatReduceAdd            0      0.00%      6.98% # attempts to use FU when none available (Count)
system.cpu.statFuBusy::SimdFloatReduceCmp            0      0.00%      6.98% # attempts to use FU when none available (Count)
system.cpu.statFuBusy::SimdAes                      0      0.00%      6.98% # attempts to use FU when none available (Count)
system.cpu.statFuBusy::SimdAesMix                   0      0.00%      6.98% # attempts to use FU when none available (Count)
system.cpu.statFuBusy::SimdSha1Hash                 0      0.00%      6.98% # attempts to use FU when none available (Count)
system.cpu.statFuBusy::SimdSha1Hash2                0      0.00%      6.98% # attempts to use FU when none available (Count)
system.cpu.statFuBusy::SimdSha256Hash               0      0.00%      6.98% # attempts to use FU when none available (Count)
system.cpu.statFuBusy::SimdSha256Hash2              0      0.00%      6.98% # attempts to use FU when none available (Count)
system.cpu.statFuBusy::SimdShaSigma2                0      0.00%      6.98% # attempts to use FU when none available (Count)
system.cpu.statFuBusy::SimdShaSigma3                0      0.00%      6.98% # attempts to use FU when none available (Count)
system.cpu.statFuBusy::SimdPredAlu                  0      0.00%      6.98% # attempts to use FU when none available (Count)
system.cpu.statFuBusy::MemRead               40209633     92.91%     99.89% # attempts to use FU when none available (Count)
system.cpu.statFuBusy::MemWrite                 24018      0.06%     99.95% # attempts to use FU when none available (Count)
system.cpu.statFuBusy::FloatMemRead                 4      0.00%     99.95% # attempts to use FU when none available (Count)
system.cpu.statFuBusy::FloatMemWrite            23532      0.05%    100.00% # attempts to use FU when none available (Count)
system.cpu.statFuBusy::IprAccess                    0      0.00%    100.00% # attempts to use FU when none available (Count)
system.cpu.statFuBusy::InstPrefetch                 0      0.00%    100.00% # attempts to use FU when none available (Count)
system.cpu.statIssuedInstType_0::No_OpClass    148633750     18.31%     18.31% # Number of instructions issued per FU type, per thread (Count)
system.cpu.statIssuedInstType_0::IntAlu     287569922     35.43%     53.74% # Number of instructions issued per FU type, per thread (Count)
system.cpu.statIssuedInstType_0::IntMult       131179      0.02%     53.76% # Number of instructions issued per FU type, per thread (Count)
system.cpu.statIssuedInstType_0::IntDiv            74      0.00%     53.76% # Number of instructions issued per FU type, per thread (Count)
system.cpu.statIssuedInstType_0::FloatAdd           34      0.00%     53.76% # Number of instructions issued per FU type, per thread (Count)
system.cpu.statIssuedInstType_0::FloatCmp            0      0.00%     53.76% # Number of instructions issued per FU type, per thread (Count)
system.cpu.statIssuedInstType_0::FloatCvt            0      0.00%     53.76% # Number of instructions issued per FU type, per thread (Count)
system.cpu.statIssuedInstType_0::FloatMult            0      0.00%     53.76% # Number of instructions issued per FU type, per thread (Count)
system.cpu.statIssuedInstType_0::FloatMultAcc            0      0.00%     53.76% # Number of instructions issued per FU type, per thread (Count)
system.cpu.statIssuedInstType_0::FloatDiv            0      0.00%     53.76% # Number of instructions issued per FU type, per thread (Count)
system.cpu.statIssuedInstType_0::FloatMisc            0      0.00%     53.76% # Number of instructions issued per FU type, per thread (Count)
system.cpu.statIssuedInstType_0::FloatSqrt            0      0.00%     53.76% # Number of instructions issued per FU type, per thread (Count)
system.cpu.statIssuedInstType_0::SimdAdd            0      0.00%     53.76% # Number of instructions issued per FU type, per thread (Count)
system.cpu.statIssuedInstType_0::SimdAddAcc            0      0.00%     53.76% # Number of instructions issued per FU type, per thread (Count)
system.cpu.statIssuedInstType_0::SimdAlu         1198      0.00%     53.76% # Number of instructions issued per FU type, per thread (Count)
system.cpu.statIssuedInstType_0::SimdCmp            0      0.00%     53.76% # Number of instructions issued per FU type, per thread (Count)
system.cpu.statIssuedInstType_0::SimdCvt          126      0.00%     53.76% # Number of instructions issued per FU type, per thread (Count)
system.cpu.statIssuedInstType_0::SimdMisc          301      0.00%     53.76% # Number of instructions issued per FU type, per thread (Count)
system.cpu.statIssuedInstType_0::SimdMult            0      0.00%     53.76% # Number of instructions issued per FU type, per thread (Count)
system.cpu.statIssuedInstType_0::SimdMultAcc            0      0.00%     53.76% # Number of instructions issued per FU type, per thread (Count)
system.cpu.statIssuedInstType_0::SimdShift            0      0.00%     53.76% # Number of instructions issued per FU type, per thread (Count)
system.cpu.statIssuedInstType_0::SimdShiftAcc            0      0.00%     53.76% # Number of instructions issued per FU type, per thread (Count)
system.cpu.statIssuedInstType_0::SimdDiv            0      0.00%     53.76% # Number of instructions issued per FU type, per thread (Count)
system.cpu.statIssuedInstType_0::SimdSqrt            0      0.00%     53.76% # Number of instructions issued per FU type, per thread (Count)
system.cpu.statIssuedInstType_0::SimdFloatAdd            0      0.00%     53.76% # Number of instructions issued per FU type, per thread (Count)
system.cpu.statIssuedInstType_0::SimdFloatAlu            0      0.00%     53.76% # Number of instructions issued per FU type, per thread (Count)
system.cpu.statIssuedInstType_0::SimdFloatCmp            0      0.00%     53.76% # Number of instructions issued per FU type, per thread (Count)
system.cpu.statIssuedInstType_0::SimdFloatCvt            0      0.00%     53.76% # Number of instructions issued per FU type, per thread (Count)
system.cpu.statIssuedInstType_0::SimdFloatDiv            0      0.00%     53.76% # Number of instructions issued per FU type, per thread (Count)
system.cpu.statIssuedInstType_0::SimdFloatMisc            0      0.00%     53.76% # Number of instructions issued per FU type, per thread (Count)
system.cpu.statIssuedInstType_0::SimdFloatMult            0      0.00%     53.76% # Number of instructions issued per FU type, per thread (Count)
system.cpu.statIssuedInstType_0::SimdFloatMultAcc            0      0.00%     53.76% # Number of instructions issued per FU type, per thread (Count)
system.cpu.statIssuedInstType_0::SimdFloatSqrt            0      0.00%     53.76% # Number of instructions issued per FU type, per thread (Count)
system.cpu.statIssuedInstType_0::SimdReduceAdd            0      0.00%     53.76% # Number of instructions issued per FU type, per thread (Count)
system.cpu.statIssuedInstType_0::SimdReduceAlu            0      0.00%     53.76% # Number of instructions issued per FU type, per thread (Count)
system.cpu.statIssuedInstType_0::SimdReduceCmp            0      0.00%     53.76% # Number of instructions issued per FU type, per thread (Count)
system.cpu.statIssuedInstType_0::SimdFloatReduceAdd            0      0.00%     53.76% # Number of instructions issued per FU type, per thread (Count)
system.cpu.statIssuedInstType_0::SimdFloatReduceCmp            0      0.00%     53.76% # Number of instructions issued per FU type, per thread (Count)
system.cpu.statIssuedInstType_0::SimdAes            0      0.00%     53.76% # Number of instructions issued per FU type, per thread (Count)
system.cpu.statIssuedInstType_0::SimdAesMix            0      0.00%     53.76% # Number of instructions issued per FU type, per thread (Count)
system.cpu.statIssuedInstType_0::SimdSha1Hash            0      0.00%     53.76% # Number of instructions issued per FU type, per thread (Count)
system.cpu.statIssuedInstType_0::SimdSha1Hash2            0      0.00%     53.76% # Number of instructions issued per FU type, per thread (Count)
system.cpu.statIssuedInstType_0::SimdSha256Hash            0      0.00%     53.76% # Number of instructions issued per FU type, per thread (Count)
system.cpu.statIssuedInstType_0::SimdSha256Hash2            0      0.00%     53.76% # Number of instructions issued per FU type, per thread (Count)
system.cpu.statIssuedInstType_0::SimdShaSigma2            0      0.00%     53.76% # Number of instructions issued per FU type, per thread (Count)
system.cpu.statIssuedInstType_0::SimdShaSigma3            0      0.00%     53.76% # Number of instructions issued per FU type, per thread (Count)
system.cpu.statIssuedInstType_0::SimdPredAlu            0      0.00%     53.76% # Number of instructions issued per FU type, per thread (Count)
system.cpu.statIssuedInstType_0::MemRead    237996671     29.32%     83.08% # Number of instructions issued per FU type, per thread (Count)
system.cpu.statIssuedInstType_0::MemWrite    137257289     16.91%    100.00% # Number of instructions issued per FU type, per thread (Count)
system.cpu.statIssuedInstType_0::FloatMemRead          237      0.00%    100.00% # Number of instructions issued per FU type, per thread (Count)
system.cpu.statIssuedInstType_0::FloatMemWrite        29794      0.00%    100.00% # Number of instructions issued per FU type, per thread (Count)
system.cpu.statIssuedInstType_0::IprAccess            0      0.00%    100.00% # Number of instructions issued per FU type, per thread (Count)
system.cpu.statIssuedInstType_0::InstPrefetch            0      0.00%    100.00% # Number of instructions issued per FU type, per thread (Count)
system.cpu.statIssuedInstType_0::total      811620575                       # Number of instructions issued per FU type, per thread (Count)
system.cpu.issueRate                         1.876399                       # Inst issue rate ((Count/Cycle))
system.cpu.fuBusy                            43276214                       # FU busy when requested (Count)
system.cpu.fuBusyRate                        0.053321                       # FU busy rate (busy events/executed inst) ((Count/Count))
system.cpu.intInstQueueReads               2101853019                       # Number of integer instruction queue reads (Count)
system.cpu.intInstQueueWrites              1895509719                       # Number of integer instruction queue writes (Count)
system.cpu.intInstQueueWakeupAccesses       566214500                       # Number of integer instruction queue wakeup accesses (Count)
system.cpu.fpInstQueueReads                    174794                       # Number of floating instruction queue reads (Count)
system.cpu.fpInstQueueWrites                 14339221                       # Number of floating instruction queue writes (Count)
system.cpu.fpInstQueueWakeupAccesses            11551                       # Number of floating instruction queue wakeup accesses (Count)
system.cpu.vecInstQueueReads                        0                       # Number of vector instruction queue reads (Count)
system.cpu.vecInstQueueWrites                       0                       # Number of vector instruction queue writes (Count)
system.cpu.vecInstQueueWakeupAccesses               0                       # Number of vector instruction queue wakeup accesses (Count)
system.cpu.intAluAccesses                   706207721                       # Number of integer alu accesses (Count)
system.cpu.fpAluAccesses                        55318                       # Number of floating point alu accesses (Count)
system.cpu.vecAluAccesses                           0                       # Number of vector alu accesses (Count)
system.cpu.numInsts                         776240128                       # Number of executed instructions (Count)
system.cpu.numLoadInsts                     224816815                       # Number of load instructions executed (Count)
system.cpu.numSquashedInsts                  35380447                       # Number of squashed instructions skipped in execute (Count)
system.cpu.numSwp                                   0                       # Number of swp insts executed (Count)
system.cpu.numNop                                   0                       # Number of nop insts executed (Count)
system.cpu.numRefs                          354510080                       # Number of memory reference insts executed (Count)
system.cpu.numBranches                       32375979                       # Number of branches executed (Count)
system.cpu.numStoreInsts                    129693265                       # Number of stores executed (Count)
system.cpu.numRate                           1.794602                       # Inst execution rate ((Count/Cycle))
system.cpu.timesIdled                             396                       # Number of times that the entire CPU went into an idle state and unscheduled itself (Count)
system.cpu.idleCycles                           27363                       # Total number of cycles that the CPU has spent unscheduled due to idling (Cycle)
system.cpu.committedInsts                    50000000                       # Number of Instructions Simulated (Count)
system.cpu.committedOps                      62368874                       # Number of Ops (including micro ops) Simulated (Count)
system.cpu.cpi                               8.650833                       # CPI: Cycles Per Instruction ((Cycle/Count))
system.cpu.totalCpi                          8.650833                       # CPI: Total CPI of All Threads ((Cycle/Count))
system.cpu.ipc                               0.115596                       # IPC: Instructions Per Cycle ((Count/Cycle))
system.cpu.totalIpc                          0.115596                       # IPC: Total IPC of All Threads ((Count/Cycle))
system.cpu.intRegfileReads                  786798592                       # Number of integer regfile reads (Count)
system.cpu.intRegfileWrites                 429164348                       # Number of integer regfile writes (Count)
system.cpu.fpRegfileReads                       13172                       # Number of floating regfile reads (Count)
system.cpu.fpRegfileWrites                       1705                       # Number of floating regfile writes (Count)
system.cpu.ccRegfileReads                   123719930                       # number of cc regfile reads (Count)
system.cpu.ccRegfileWrites                  102476748                       # number of cc regfile writes (Count)
system.cpu.miscRegfileReads                 428449654                       # number of misc regfile reads (Count)
system.cpu.MemDepUnit__0.insertedLoads      253000582                       # Number of loads inserted to the mem dependence unit. (Count)
system.cpu.MemDepUnit__0.insertedStores     190300349                       # Number of stores inserted to the mem dependence unit. (Count)
system.cpu.MemDepUnit__0.conflictingLoads      6152560                       # Number of conflicting loads. (Count)
system.cpu.MemDepUnit__0.conflictingStores     22428495                       # Number of conflicting stores. (Count)
system.cpu.MemDepUnit__1.insertedLoads              0                       # Number of loads inserted to the mem dependence unit. (Count)
system.cpu.MemDepUnit__1.insertedStores             0                       # Number of stores inserted to the mem dependence unit. (Count)
system.cpu.MemDepUnit__1.conflictingLoads            0                       # Number of conflicting loads. (Count)
system.cpu.MemDepUnit__1.conflictingStores            0                       # Number of conflicting stores. (Count)
system.cpu.MemDepUnit__2.insertedLoads              0                       # Number of loads inserted to the mem dependence unit. (Count)
system.cpu.MemDepUnit__2.insertedStores             0                       # Number of stores inserted to the mem dependence unit. (Count)
system.cpu.MemDepUnit__2.conflictingLoads            0                       # Number of conflicting loads. (Count)
system.cpu.MemDepUnit__2.conflictingStores            0                       # Number of conflicting stores. (Count)
system.cpu.MemDepUnit__3.insertedLoads              0                       # Number of loads inserted to the mem dependence unit. (Count)
system.cpu.MemDepUnit__3.insertedStores             0                       # Number of stores inserted to the mem dependence unit. (Count)
system.cpu.MemDepUnit__3.conflictingLoads            0                       # Number of conflicting loads. (Count)
system.cpu.MemDepUnit__3.conflictingStores            0                       # Number of conflicting stores. (Count)
system.cpu.branchPred.lookups                72495428                       # Number of BP lookups (Count)
system.cpu.branchPred.condPredicted          44450972                       # Number of conditional branches predicted (Count)
system.cpu.branchPred.condIncorrect           8005520                       # Number of conditional branches incorrect (Count)
system.cpu.branchPred.BTBLookups              9423913                       # Number of BTB lookups (Count)
system.cpu.branchPred.BTBHits                 9422655                       # Number of BTB hits (Count)
system.cpu.branchPred.BTBHitRatio            0.999867                       # BTB Hit Ratio (Ratio)
system.cpu.branchPred.RASUsed                18620364                       # Number of times the RAS was used to get a target. (Count)
system.cpu.branchPred.RASIncorrect                  2                       # Number of incorrect RAS predictions. (Count)
system.cpu.branchPred.indirectLookups             179                       # Number of indirect predictor lookups. (Count)
system.cpu.branchPred.indirectHits                 42                       # Number of indirect target hits. (Count)
system.cpu.branchPred.indirectMisses              137                       # Number of indirect misses. (Count)
system.cpu.branchPred.indirectMispredicted           66                       # Number of mispredicted indirect branches. (Count)
system.cpu.commit.commitSquashedInsts       574219427                       # The number of squashed insts skipped by commit (Count)
system.cpu.commit.commitNonSpecStalls          888752                       # The number of times commit has been forced to stall to communicate backwards (Count)
system.cpu.commit.branchMispredicts           8004860                       # The number of times a branch was mispredicted (Count)
system.cpu.commit.numCommittedDist::samples    335203822                       # Number of insts commited each cycle (Count)
system.cpu.commit.numCommittedDist::mean     0.186063                       # Number of insts commited each cycle (Count)
system.cpu.commit.numCommittedDist::stdev     0.910688                       # Number of insts commited each cycle (Count)
system.cpu.commit.numCommittedDist::underflows            0      0.00%      0.00% # Number of insts commited each cycle (Count)
system.cpu.commit.numCommittedDist::0       308788561     92.12%     92.12% # Number of insts commited each cycle (Count)
system.cpu.commit.numCommittedDist::1        16255660      4.85%     96.97% # Number of insts commited each cycle (Count)
system.cpu.commit.numCommittedDist::2         2973846      0.89%     97.86% # Number of insts commited each cycle (Count)
system.cpu.commit.numCommittedDist::3         2288217      0.68%     98.54% # Number of insts commited each cycle (Count)
system.cpu.commit.numCommittedDist::4         1188416      0.35%     98.89% # Number of insts commited each cycle (Count)
system.cpu.commit.numCommittedDist::5          179980      0.05%     98.95% # Number of insts commited each cycle (Count)
system.cpu.commit.numCommittedDist::6          135087      0.04%     98.99% # Number of insts commited each cycle (Count)
system.cpu.commit.numCommittedDist::7          315655      0.09%     99.08% # Number of insts commited each cycle (Count)
system.cpu.commit.numCommittedDist::8         3078400      0.92%    100.00% # Number of insts commited each cycle (Count)
system.cpu.commit.numCommittedDist::overflows            0      0.00%    100.00% # Number of insts commited each cycle (Count)
system.cpu.commit.numCommittedDist::min_value            0                       # Number of insts commited each cycle (Count)
system.cpu.commit.numCommittedDist::max_value            8                       # Number of insts commited each cycle (Count)
system.cpu.commit.numCommittedDist::total    335203822                       # Number of insts commited each cycle (Count)
system.cpu.commit.instsCommitted             50000000                       # Number of instructions committed (Count)
system.cpu.commit.opsCommitted               62368874                       # Number of ops (including micro ops) committed (Count)
system.cpu.commit.memRefs                    36814373                       # Number of memory references committed (Count)
system.cpu.commit.loads                      25317336                       # Number of loads committed (Count)
system.cpu.commit.amos                              0                       # Number of atomic instructions committed (Count)
system.cpu.commit.membars                          48                       # Number of memory barriers committed (Count)
system.cpu.commit.branches                    3201950                       # Number of branches committed (Count)
system.cpu.commit.vectorInstructions                0                       # Number of committed Vector instructions. (Count)
system.cpu.commit.floating                        835                       # Number of committed floating point instructions. (Count)
system.cpu.commit.integer                    61431729                       # Number of committed integer instructions. (Count)
system.cpu.commit.functionCalls                 21390                       # Number of function calls committed. (Count)
system.cpu.commit.committedInstType_0::No_OpClass       888800      1.43%      1.43% # Class of committed instruction (Count)
system.cpu.commit.committedInstType_0::IntAlu     24534233     39.34%     40.76% # Class of committed instruction (Count)
system.cpu.commit.committedInstType_0::IntMult       130868      0.21%     40.97% # Class of committed instruction (Count)
system.cpu.commit.committedInstType_0::IntDiv           70      0.00%     40.97% # Class of committed instruction (Count)
system.cpu.commit.committedInstType_0::FloatAdd           21      0.00%     40.97% # Class of committed instruction (Count)
system.cpu.commit.committedInstType_0::FloatCmp            0      0.00%     40.97% # Class of committed instruction (Count)
system.cpu.commit.committedInstType_0::FloatCvt            0      0.00%     40.97% # Class of committed instruction (Count)
system.cpu.commit.committedInstType_0::FloatMult            0      0.00%     40.97% # Class of committed instruction (Count)
system.cpu.commit.committedInstType_0::FloatMultAcc            0      0.00%     40.97% # Class of committed instruction (Count)
system.cpu.commit.committedInstType_0::FloatDiv            0      0.00%     40.97% # Class of committed instruction (Count)
system.cpu.commit.committedInstType_0::FloatMisc            0      0.00%     40.97% # Class of committed instruction (Count)
system.cpu.commit.committedInstType_0::FloatSqrt            0      0.00%     40.97% # Class of committed instruction (Count)
system.cpu.commit.committedInstType_0::SimdAdd            0      0.00%     40.97% # Class of committed instruction (Count)
system.cpu.commit.committedInstType_0::SimdAddAcc            0      0.00%     40.97% # Class of committed instruction (Count)
system.cpu.commit.committedInstType_0::SimdAlu          142      0.00%     40.97% # Class of committed instruction (Count)
system.cpu.commit.committedInstType_0::SimdCmp            0      0.00%     40.97% # Class of committed instruction (Count)
system.cpu.commit.committedInstType_0::SimdCvt          126      0.00%     40.97% # Class of committed instruction (Count)
system.cpu.commit.committedInstType_0::SimdMisc          241      0.00%     40.97% # Class of committed instruction (Count)
system.cpu.commit.committedInstType_0::SimdMult            0      0.00%     40.97% # Class of committed instruction (Count)
system.cpu.commit.committedInstType_0::SimdMultAcc            0      0.00%     40.97% # Class of committed instruction (Count)
system.cpu.commit.committedInstType_0::SimdShift            0      0.00%     40.97% # Class of committed instruction (Count)
system.cpu.commit.committedInstType_0::SimdShiftAcc            0      0.00%     40.97% # Class of committed instruction (Count)
system.cpu.commit.committedInstType_0::SimdDiv            0      0.00%     40.97% # Class of committed instruction (Count)
system.cpu.commit.committedInstType_0::SimdSqrt            0      0.00%     40.97% # Class of committed instruction (Count)
system.cpu.commit.committedInstType_0::SimdFloatAdd            0      0.00%     40.97% # Class of committed instruction (Count)
system.cpu.commit.committedInstType_0::SimdFloatAlu            0      0.00%     40.97% # Class of committed instruction (Count)
system.cpu.commit.committedInstType_0::SimdFloatCmp            0      0.00%     40.97% # Class of committed instruction (Count)
system.cpu.commit.committedInstType_0::SimdFloatCvt            0      0.00%     40.97% # Class of committed instruction (Count)
system.cpu.commit.committedInstType_0::SimdFloatDiv            0      0.00%     40.97% # Class of committed instruction (Count)
system.cpu.commit.committedInstType_0::SimdFloatMisc            0      0.00%     40.97% # Class of committed instruction (Count)
system.cpu.commit.committedInstType_0::SimdFloatMult            0      0.00%     40.97% # Class of committed instruction (Count)
system.cpu.commit.committedInstType_0::SimdFloatMultAcc            0      0.00%     40.97% # Class of committed instruction (Count)
system.cpu.commit.committedInstType_0::SimdFloatSqrt            0      0.00%     40.97% # Class of committed instruction (Count)
system.cpu.commit.committedInstType_0::SimdReduceAdd            0      0.00%     40.97% # Class of committed instruction (Count)
system.cpu.commit.committedInstType_0::SimdReduceAlu            0      0.00%     40.97% # Class of committed instruction (Count)
system.cpu.commit.committedInstType_0::SimdReduceCmp            0      0.00%     40.97% # Class of committed instruction (Count)
system.cpu.commit.committedInstType_0::SimdFloatReduceAdd            0      0.00%     40.97% # Class of committed instruction (Count)
system.cpu.commit.committedInstType_0::SimdFloatReduceCmp            0      0.00%     40.97% # Class of committed instruction (Count)
system.cpu.commit.committedInstType_0::SimdAes            0      0.00%     40.97% # Class of committed instruction (Count)
system.cpu.commit.committedInstType_0::SimdAesMix            0      0.00%     40.97% # Class of committed instruction (Count)
system.cpu.commit.committedInstType_0::SimdSha1Hash            0      0.00%     40.97% # Class of committed instruction (Count)
system.cpu.commit.committedInstType_0::SimdSha1Hash2            0      0.00%     40.97% # Class of committed instruction (Count)
system.cpu.commit.committedInstType_0::SimdSha256Hash            0      0.00%     40.97% # Class of committed instruction (Count)
system.cpu.commit.committedInstType_0::SimdSha256Hash2            0      0.00%     40.97% # Class of committed instruction (Count)
system.cpu.commit.committedInstType_0::SimdShaSigma2            0      0.00%     40.97% # Class of committed instruction (Count)
system.cpu.commit.committedInstType_0::SimdShaSigma3            0      0.00%     40.97% # Class of committed instruction (Count)
system.cpu.commit.committedInstType_0::SimdPredAlu            0      0.00%     40.97% # Class of committed instruction (Count)
system.cpu.commit.committedInstType_0::MemRead     25317254     40.59%     81.57% # Class of committed instruction (Count)
system.cpu.commit.committedInstType_0::MemWrite     11496873     18.43%    100.00% # Class of committed instruction (Count)
system.cpu.commit.committedInstType_0::FloatMemRead           82      0.00%    100.00% # Class of committed instruction (Count)
system.cpu.commit.committedInstType_0::FloatMemWrite          164      0.00%    100.00% # Class of committed instruction (Count)
system.cpu.commit.committedInstType_0::IprAccess            0      0.00%    100.00% # Class of committed instruction (Count)
system.cpu.commit.committedInstType_0::InstPrefetch            0      0.00%    100.00% # Class of committed instruction (Count)
system.cpu.commit.committedInstType_0::total     62368874                       # Class of committed instruction (Count)
system.cpu.commit.commitEligibleSamples       3078400                       # number cycles where commit BW limit reached (Cycle)
system.cpu.dcache.demandHits::cpu.data      229513374                       # number of demand (read+write) hits (Count)
system.cpu.dcache.demandHits::total         229513374                       # number of demand (read+write) hits (Count)
system.cpu.dcache.overallHits::cpu.data     229513374                       # number of overall hits (Count)
system.cpu.dcache.overallHits::total        229513374                       # number of overall hits (Count)
system.cpu.dcache.demandMisses::cpu.data      2981598                       # number of demand (read+write) misses (Count)
system.cpu.dcache.demandMisses::total         2981598                       # number of demand (read+write) misses (Count)
system.cpu.dcache.overallMisses::cpu.data      3047136                       # number of overall misses (Count)
system.cpu.dcache.overallMisses::total        3047136                       # number of overall misses (Count)
system.cpu.dcache.demandMissLatency::cpu.data 300236299994                       # number of demand (read+write) miss ticks (Tick)
system.cpu.dcache.demandMissLatency::total 300236299994                       # number of demand (read+write) miss ticks (Tick)
system.cpu.dcache.overallMissLatency::cpu.data 300236299994                       # number of overall miss ticks (Tick)
system.cpu.dcache.overallMissLatency::total 300236299994                       # number of overall miss ticks (Tick)
system.cpu.dcache.demandAccesses::cpu.data    232494972                       # number of demand (read+write) accesses (Count)
system.cpu.dcache.demandAccesses::total     232494972                       # number of demand (read+write) accesses (Count)
system.cpu.dcache.overallAccesses::cpu.data    232560510                       # number of overall (read+write) accesses (Count)
system.cpu.dcache.overallAccesses::total    232560510                       # number of overall (read+write) accesses (Count)
system.cpu.dcache.demandMissRate::cpu.data     0.012824                       # miss rate for demand accesses (Ratio)
system.cpu.dcache.demandMissRate::total      0.012824                       # miss rate for demand accesses (Ratio)
system.cpu.dcache.overallMissRate::cpu.data     0.013103                       # miss rate for overall accesses (Ratio)
system.cpu.dcache.overallMissRate::total     0.013103                       # miss rate for overall accesses (Ratio)
system.cpu.dcache.demandAvgMissLatency::cpu.data 100696.438619                       # average overall miss latency in ticks ((Tick/Count))
system.cpu.dcache.demandAvgMissLatency::total 100696.438619                       # average overall miss latency in ticks ((Tick/Count))
system.cpu.dcache.overallAvgMissLatency::cpu.data 98530.653044                       # average overall miss latency ((Tick/Count))
system.cpu.dcache.overallAvgMissLatency::total 98530.653044                       # average overall miss latency ((Tick/Count))
system.cpu.dcache.blockedCycles::no_mshrs      1676110                       # number of cycles access was blocked (Cycle)
system.cpu.dcache.blockedCycles::no_targets            0                       # number of cycles access was blocked (Cycle)
system.cpu.dcache.blockedCauses::no_mshrs        23506                       # number of times access was blocked (Count)
system.cpu.dcache.blockedCauses::no_targets            0                       # number of times access was blocked (Count)
system.cpu.dcache.avgBlocked::no_mshrs      71.305624                       # average number of cycles each access was blocked ((Cycle/Count))
system.cpu.dcache.avgBlocked::no_targets          nan                       # average number of cycles each access was blocked ((Cycle/Count))
system.cpu.dcache.writebacks::writebacks      1124891                       # number of writebacks (Count)
system.cpu.dcache.writebacks::total           1124891                       # number of writebacks (Count)
system.cpu.dcache.demandMshrHits::cpu.data       928879                       # number of demand (read+write) MSHR hits (Count)
system.cpu.dcache.demandMshrHits::total        928879                       # number of demand (read+write) MSHR hits (Count)
system.cpu.dcache.overallMshrHits::cpu.data       928879                       # number of overall MSHR hits (Count)
system.cpu.dcache.overallMshrHits::total       928879                       # number of overall MSHR hits (Count)
system.cpu.dcache.demandMshrMisses::cpu.data      2052719                       # number of demand (read+write) MSHR misses (Count)
system.cpu.dcache.demandMshrMisses::total      2052719                       # number of demand (read+write) MSHR misses (Count)
system.cpu.dcache.overallMshrMisses::cpu.data      2118255                       # number of overall MSHR misses (Count)
system.cpu.dcache.overallMshrMisses::total      2118255                       # number of overall MSHR misses (Count)
system.cpu.dcache.demandMshrMissLatency::cpu.data 203564590995                       # number of demand (read+write) MSHR miss ticks (Tick)
system.cpu.dcache.demandMshrMissLatency::total 203564590995                       # number of demand (read+write) MSHR miss ticks (Tick)
system.cpu.dcache.overallMshrMissLatency::cpu.data 210869415995                       # number of overall MSHR miss ticks (Tick)
system.cpu.dcache.overallMshrMissLatency::total 210869415995                       # number of overall MSHR miss ticks (Tick)
system.cpu.dcache.demandMshrMissRate::cpu.data     0.008829                       # mshr miss ratio for demand accesses (Ratio)
system.cpu.dcache.demandMshrMissRate::total     0.008829                       # mshr miss ratio for demand accesses (Ratio)
system.cpu.dcache.overallMshrMissRate::cpu.data     0.009108                       # mshr miss ratio for overall accesses (Ratio)
system.cpu.dcache.overallMshrMissRate::total     0.009108                       # mshr miss ratio for overall accesses (Ratio)
system.cpu.dcache.demandAvgMshrMissLatency::cpu.data 99168.269498                       # average overall mshr miss latency ((Tick/Count))
system.cpu.dcache.demandAvgMshrMissLatency::total 99168.269498                       # average overall mshr miss latency ((Tick/Count))
system.cpu.dcache.overallAvgMshrMissLatency::cpu.data 99548.645463                       # average overall mshr miss latency ((Tick/Count))
system.cpu.dcache.overallAvgMshrMissLatency::total 99548.645463                       # average overall mshr miss latency ((Tick/Count))
system.cpu.dcache.replacements                2117743                       # number of replacements (Count)
system.cpu.dcache.LockedRMWReadReq.hits::cpu.data           24                       # number of LockedRMWReadReq hits (Count)
system.cpu.dcache.LockedRMWReadReq.hits::total           24                       # number of LockedRMWReadReq hits (Count)
system.cpu.dcache.LockedRMWReadReq.accesses::cpu.data           24                       # number of LockedRMWReadReq accesses(hits+misses) (Count)
system.cpu.dcache.LockedRMWReadReq.accesses::total           24                       # number of LockedRMWReadReq accesses(hits+misses) (Count)
system.cpu.dcache.LockedRMWReadReq.mshrMissLatency::cpu.data       276000                       # number of LockedRMWReadReq MSHR miss ticks (Tick)
system.cpu.dcache.LockedRMWReadReq.mshrMissLatency::total       276000                       # number of LockedRMWReadReq MSHR miss ticks (Tick)
system.cpu.dcache.LockedRMWReadReq.avgMshrMissLatency::cpu.data          inf                       # average LockedRMWReadReq mshr miss latency ((Tick/Count))
system.cpu.dcache.LockedRMWReadReq.avgMshrMissLatency::total          inf                       # average LockedRMWReadReq mshr miss latency ((Tick/Count))
system.cpu.dcache.LockedRMWWriteReq.hits::cpu.data           24                       # number of LockedRMWWriteReq hits (Count)
system.cpu.dcache.LockedRMWWriteReq.hits::total           24                       # number of LockedRMWWriteReq hits (Count)
system.cpu.dcache.LockedRMWWriteReq.accesses::cpu.data           24                       # number of LockedRMWWriteReq accesses(hits+misses) (Count)
system.cpu.dcache.LockedRMWWriteReq.accesses::total           24                       # number of LockedRMWWriteReq accesses(hits+misses) (Count)
system.cpu.dcache.ReadReq.hits::cpu.data    219108830                       # number of ReadReq hits (Count)
system.cpu.dcache.ReadReq.hits::total       219108830                       # number of ReadReq hits (Count)
system.cpu.dcache.ReadReq.misses::cpu.data      1889129                       # number of ReadReq misses (Count)
system.cpu.dcache.ReadReq.misses::total       1889129                       # number of ReadReq misses (Count)
system.cpu.dcache.ReadReq.missLatency::cpu.data 188155562000                       # number of ReadReq miss ticks (Tick)
system.cpu.dcache.ReadReq.missLatency::total 188155562000                       # number of ReadReq miss ticks (Tick)
system.cpu.dcache.ReadReq.accesses::cpu.data    220997959                       # number of ReadReq accesses(hits+misses) (Count)
system.cpu.dcache.ReadReq.accesses::total    220997959                       # number of ReadReq accesses(hits+misses) (Count)
system.cpu.dcache.ReadReq.missRate::cpu.data     0.008548                       # miss rate for ReadReq accesses (Ratio)
system.cpu.dcache.ReadReq.missRate::total     0.008548                       # miss rate for ReadReq accesses (Ratio)
system.cpu.dcache.ReadReq.avgMissLatency::cpu.data 99599.107313                       # average ReadReq miss latency ((Tick/Count))
system.cpu.dcache.ReadReq.avgMissLatency::total 99599.107313                       # average ReadReq miss latency ((Tick/Count))
system.cpu.dcache.ReadReq.mshrHits::cpu.data       928877                       # number of ReadReq MSHR hits (Count)
system.cpu.dcache.ReadReq.mshrHits::total       928877                       # number of ReadReq MSHR hits (Count)
system.cpu.dcache.ReadReq.mshrMisses::cpu.data       960252                       # number of ReadReq MSHR misses (Count)
system.cpu.dcache.ReadReq.mshrMisses::total       960252                       # number of ReadReq MSHR misses (Count)
system.cpu.dcache.ReadReq.mshrMissLatency::cpu.data  93668966000                       # number of ReadReq MSHR miss ticks (Tick)
system.cpu.dcache.ReadReq.mshrMissLatency::total  93668966000                       # number of ReadReq MSHR miss ticks (Tick)
system.cpu.dcache.ReadReq.mshrMissRate::cpu.data     0.004345                       # mshr miss rate for ReadReq accesses (Ratio)
system.cpu.dcache.ReadReq.mshrMissRate::total     0.004345                       # mshr miss rate for ReadReq accesses (Ratio)
system.cpu.dcache.ReadReq.avgMshrMissLatency::cpu.data 97546.233697                       # average ReadReq mshr miss latency ((Tick/Count))
system.cpu.dcache.ReadReq.avgMshrMissLatency::total 97546.233697                       # average ReadReq mshr miss latency ((Tick/Count))
system.cpu.dcache.SoftPFReq.misses::cpu.data        65538                       # number of SoftPFReq misses (Count)
system.cpu.dcache.SoftPFReq.misses::total        65538                       # number of SoftPFReq misses (Count)
system.cpu.dcache.SoftPFReq.accesses::cpu.data        65538                       # number of SoftPFReq accesses(hits+misses) (Count)
system.cpu.dcache.SoftPFReq.accesses::total        65538                       # number of SoftPFReq accesses(hits+misses) (Count)
system.cpu.dcache.SoftPFReq.missRate::cpu.data            1                       # miss rate for SoftPFReq accesses (Ratio)
system.cpu.dcache.SoftPFReq.missRate::total            1                       # miss rate for SoftPFReq accesses (Ratio)
system.cpu.dcache.SoftPFReq.mshrMisses::cpu.data        65536                       # number of SoftPFReq MSHR misses (Count)
system.cpu.dcache.SoftPFReq.mshrMisses::total        65536                       # number of SoftPFReq MSHR misses (Count)
system.cpu.dcache.SoftPFReq.mshrMissLatency::cpu.data   7304825000                       # number of SoftPFReq MSHR miss ticks (Tick)
system.cpu.dcache.SoftPFReq.mshrMissLatency::total   7304825000                       # number of SoftPFReq MSHR miss ticks (Tick)
system.cpu.dcache.SoftPFReq.mshrMissRate::cpu.data     0.999969                       # mshr miss rate for SoftPFReq accesses (Ratio)
system.cpu.dcache.SoftPFReq.mshrMissRate::total     0.999969                       # mshr miss rate for SoftPFReq accesses (Ratio)
system.cpu.dcache.SoftPFReq.avgMshrMissLatency::cpu.data 111462.783813                       # average SoftPFReq mshr miss latency ((Tick/Count))
system.cpu.dcache.SoftPFReq.avgMshrMissLatency::total 111462.783813                       # average SoftPFReq mshr miss latency ((Tick/Count))
system.cpu.dcache.WriteReq.hits::cpu.data     10404544                       # number of WriteReq hits (Count)
system.cpu.dcache.WriteReq.hits::total       10404544                       # number of WriteReq hits (Count)
system.cpu.dcache.WriteReq.misses::cpu.data      1092469                       # number of WriteReq misses (Count)
system.cpu.dcache.WriteReq.misses::total      1092469                       # number of WriteReq misses (Count)
system.cpu.dcache.WriteReq.missLatency::cpu.data 112080737994                       # number of WriteReq miss ticks (Tick)
system.cpu.dcache.WriteReq.missLatency::total 112080737994                       # number of WriteReq miss ticks (Tick)
system.cpu.dcache.WriteReq.accesses::cpu.data     11497013                       # number of WriteReq accesses(hits+misses) (Count)
system.cpu.dcache.WriteReq.accesses::total     11497013                       # number of WriteReq accesses(hits+misses) (Count)
system.cpu.dcache.WriteReq.missRate::cpu.data     0.095022                       # miss rate for WriteReq accesses (Ratio)
system.cpu.dcache.WriteReq.missRate::total     0.095022                       # miss rate for WriteReq accesses (Ratio)
system.cpu.dcache.WriteReq.avgMissLatency::cpu.data 102593.975659                       # average WriteReq miss latency ((Tick/Count))
system.cpu.dcache.WriteReq.avgMissLatency::total 102593.975659                       # average WriteReq miss latency ((Tick/Count))
system.cpu.dcache.WriteReq.mshrHits::cpu.data            2                       # number of WriteReq MSHR hits (Count)
system.cpu.dcache.WriteReq.mshrHits::total            2                       # number of WriteReq MSHR hits (Count)
system.cpu.dcache.WriteReq.mshrMisses::cpu.data      1092467                       # number of WriteReq MSHR misses (Count)
system.cpu.dcache.WriteReq.mshrMisses::total      1092467                       # number of WriteReq MSHR misses (Count)
system.cpu.dcache.WriteReq.mshrMissLatency::cpu.data 109895624995                       # number of WriteReq MSHR miss ticks (Tick)
system.cpu.dcache.WriteReq.mshrMissLatency::total 109895624995                       # number of WriteReq MSHR miss ticks (Tick)
system.cpu.dcache.WriteReq.mshrMissRate::cpu.data     0.095022                       # mshr miss rate for WriteReq accesses (Ratio)
system.cpu.dcache.WriteReq.mshrMissRate::total     0.095022                       # mshr miss rate for WriteReq accesses (Ratio)
system.cpu.dcache.WriteReq.avgMshrMissLatency::cpu.data 100593.999631                       # average WriteReq mshr miss latency ((Tick/Count))
system.cpu.dcache.WriteReq.avgMshrMissLatency::total 100593.999631                       # average WriteReq mshr miss latency ((Tick/Count))
system.cpu.dcache.power_state.pwrStateResidencyTicks::UNDEFINED 432541660000                       # Cumulative time (in ticks) in various power states (Tick)
system.cpu.dcache.tags.tagsInUse           494.453881                       # Average ticks per tags in use ((Tick/Count))
system.cpu.dcache.tags.totalRefs            231631677                       # Total number of references to valid blocks. (Count)
system.cpu.dcache.tags.sampledRefs            2118255                       # Sample count of references to valid blocks. (Count)
system.cpu.dcache.tags.avgRefs             109.350233                       # Average number of references to valid blocks. ((Count/Count))
system.cpu.dcache.tags.warmupTick              240000                       # The tick when the warmup percentage was hit. (Tick)
system.cpu.dcache.tags.occupancies::cpu.data   494.453881                       # Average occupied blocks per tick, per requestor ((Count/Tick))
system.cpu.dcache.tags.avgOccs::cpu.data     0.965730                       # Average percentage of cache occupancy ((Ratio/Tick))
system.cpu.dcache.tags.avgOccs::total        0.965730                       # Average percentage of cache occupancy ((Ratio/Tick))
system.cpu.dcache.tags.occupanciesTaskId::1024          512                       # Occupied blocks per task id (Count)
system.cpu.dcache.tags.ageTaskId_1024::0            1                       # Occupied blocks per task id, per block age (Count)
system.cpu.dcache.tags.ageTaskId_1024::1           11                       # Occupied blocks per task id, per block age (Count)
system.cpu.dcache.tags.ageTaskId_1024::2          174                       # Occupied blocks per task id, per block age (Count)
system.cpu.dcache.tags.ageTaskId_1024::3          205                       # Occupied blocks per task id, per block age (Count)
system.cpu.dcache.tags.ageTaskId_1024::4          121                       # Occupied blocks per task id, per block age (Count)
system.cpu.dcache.tags.ratioOccsTaskId::1024            1                       # Ratio of occupied blocks and all blocks, per task id (Ratio)
system.cpu.dcache.tags.tagAccesses          932360487                       # Number of tag accesses (Count)
system.cpu.dcache.tags.dataAccesses         932360487                       # Number of data accesses (Count)
system.cpu.dcache.tags.power_state.pwrStateResidencyTicks::UNDEFINED 432541660000                       # Cumulative time (in ticks) in various power states (Tick)
system.cpu.decode.idleCycles                 73323270                       # Number of cycles decode is idle (Cycle)
system.cpu.decode.blockedCycles             176184650                       # Number of cycles decode is blocked (Cycle)
system.cpu.decode.runCycles                 152127251                       # Number of cycles decode is running (Cycle)
system.cpu.decode.unblockCycles              15714037                       # Number of cycles decode is unblocking (Cycle)
system.cpu.decode.squashCycles               15165090                       # Number of cycles decode is squashing (Cycle)
system.cpu.decode.branchResolved              9097949                       # Number of times decode resolved a branch (Count)
system.cpu.decode.branchMispred                   923                       # Number of times decode detected a branch misprediction (Count)
system.cpu.decode.decodedInsts             1214786110                       # Number of instructions handled by decode (Count)
system.cpu.decode.squashedInsts                  3732                       # Number of squashed instructions handled by decode (Count)
system.cpu.fetch.icacheStallCycles          113185434                       # Number of cycles fetch is stalled on an Icache miss (Cycle)
system.cpu.fetch.insts                      900158721                       # Number of instructions fetch has processed (Count)
system.cpu.fetch.branches                    72495428                       # Number of branches that fetch encountered (Count)
system.cpu.fetch.predictedBranches           28043061                       # Number of branches that fetch has predicted taken (Count)
system.cpu.fetch.cycles                     304162052                       # Number of cycles fetch has run and was not squashing or blocked (Cycle)
system.cpu.fetch.squashCycles                30331530                       # Number of cycles fetch has spent squashing (Cycle)
system.cpu.fetch.miscStallCycles                   16                       # Number of cycles fetch has spent waiting on interrupts, or bad addresses, or out of MSHRs (Cycle)
system.cpu.fetch.pendingTrapStallCycles          1031                       # Number of stall cycles due to pending traps (Cycle)
system.cpu.fetch.cacheLines                 103989127                       # Number of cache lines fetched (Count)
system.cpu.fetch.icacheSquashes               5917505                       # Number of outstanding Icache misses that were squashed (Count)
system.cpu.fetch.nisnDist::samples          432514298                       # Number of instructions fetched each cycle (Total) (Count)
system.cpu.fetch.nisnDist::mean              3.087337                       # Number of instructions fetched each cycle (Total) (Count)
system.cpu.fetch.nisnDist::stdev             3.563798                       # Number of instructions fetched each cycle (Total) (Count)
system.cpu.fetch.nisnDist::underflows               0      0.00%      0.00% # Number of instructions fetched each cycle (Total) (Count)
system.cpu.fetch.nisnDist::0                224845525     51.99%     51.99% # Number of instructions fetched each cycle (Total) (Count)
system.cpu.fetch.nisnDist::1                 13166231      3.04%     55.03% # Number of instructions fetched each cycle (Total) (Count)
system.cpu.fetch.nisnDist::2                   864599      0.20%     55.23% # Number of instructions fetched each cycle (Total) (Count)
system.cpu.fetch.nisnDist::3                 13230673      3.06%     58.29% # Number of instructions fetched each cycle (Total) (Count)
system.cpu.fetch.nisnDist::4                 20719364      4.79%     63.08% # Number of instructions fetched each cycle (Total) (Count)
system.cpu.fetch.nisnDist::5                 17804654      4.12%     67.20% # Number of instructions fetched each cycle (Total) (Count)
system.cpu.fetch.nisnDist::6                  8242673      1.91%     69.10% # Number of instructions fetched each cycle (Total) (Count)
system.cpu.fetch.nisnDist::7                  9751236      2.25%     71.36% # Number of instructions fetched each cycle (Total) (Count)
system.cpu.fetch.nisnDist::8                123889343     28.64%    100.00% # Number of instructions fetched each cycle (Total) (Count)
system.cpu.fetch.nisnDist::overflows                0      0.00%    100.00% # Number of instructions fetched each cycle (Total) (Count)
system.cpu.fetch.nisnDist::min_value                0                       # Number of instructions fetched each cycle (Total) (Count)
system.cpu.fetch.nisnDist::max_value                8                       # Number of instructions fetched each cycle (Total) (Count)
system.cpu.fetch.nisnDist::total            432514298                       # Number of instructions fetched each cycle (Total) (Count)
system.cpu.fetch.branchRate                  0.167603                       # Number of branch fetches per cycle (Ratio)
system.cpu.fetch.rate                        2.081091                       # Number of inst fetches per cycle ((Count/Cycle))
system.cpu.icache.demandHits::cpu.inst      103988070                       # number of demand (read+write) hits (Count)
system.cpu.icache.demandHits::total         103988070                       # number of demand (read+write) hits (Count)
system.cpu.icache.overallHits::cpu.inst     103988070                       # number of overall hits (Count)
system.cpu.icache.overallHits::total        103988070                       # number of overall hits (Count)
system.cpu.icache.demandMisses::cpu.inst         1057                       # number of demand (read+write) misses (Count)
system.cpu.icache.demandMisses::total            1057                       # number of demand (read+write) misses (Count)
system.cpu.icache.overallMisses::cpu.inst         1057                       # number of overall misses (Count)
system.cpu.icache.overallMisses::total           1057                       # number of overall misses (Count)
system.cpu.icache.demandMissLatency::cpu.inst    100539000                       # number of demand (read+write) miss ticks (Tick)
system.cpu.icache.demandMissLatency::total    100539000                       # number of demand (read+write) miss ticks (Tick)
system.cpu.icache.overallMissLatency::cpu.inst    100539000                       # number of overall miss ticks (Tick)
system.cpu.icache.overallMissLatency::total    100539000                       # number of overall miss ticks (Tick)
system.cpu.icache.demandAccesses::cpu.inst    103989127                       # number of demand (read+write) accesses (Count)
system.cpu.icache.demandAccesses::total     103989127                       # number of demand (read+write) accesses (Count)
system.cpu.icache.overallAccesses::cpu.inst    103989127                       # number of overall (read+write) accesses (Count)
system.cpu.icache.overallAccesses::total    103989127                       # number of overall (read+write) accesses (Count)
system.cpu.icache.demandMissRate::cpu.inst     0.000010                       # miss rate for demand accesses (Ratio)
system.cpu.icache.demandMissRate::total      0.000010                       # miss rate for demand accesses (Ratio)
system.cpu.icache.overallMissRate::cpu.inst     0.000010                       # miss rate for overall accesses (Ratio)
system.cpu.icache.overallMissRate::total     0.000010                       # miss rate for overall accesses (Ratio)
system.cpu.icache.demandAvgMissLatency::cpu.inst 95117.313150                       # average overall miss latency in ticks ((Tick/Count))
system.cpu.icache.demandAvgMissLatency::total 95117.313150                       # average overall miss latency in ticks ((Tick/Count))
system.cpu.icache.overallAvgMissLatency::cpu.inst 95117.313150                       # average overall miss latency ((Tick/Count))
system.cpu.icache.overallAvgMissLatency::total 95117.313150                       # average overall miss latency ((Tick/Count))
system.cpu.icache.blockedCycles::no_mshrs          137                       # number of cycles access was blocked (Cycle)
system.cpu.icache.blockedCycles::no_targets            0                       # number of cycles access was blocked (Cycle)
system.cpu.icache.blockedCauses::no_mshrs            4                       # number of times access was blocked (Count)
system.cpu.icache.blockedCauses::no_targets            0                       # number of times access was blocked (Count)
system.cpu.icache.avgBlocked::no_mshrs      34.250000                       # average number of cycles each access was blocked ((Cycle/Count))
system.cpu.icache.avgBlocked::no_targets          nan                       # average number of cycles each access was blocked ((Cycle/Count))
system.cpu.icache.demandMshrHits::cpu.inst          308                       # number of demand (read+write) MSHR hits (Count)
system.cpu.icache.demandMshrHits::total           308                       # number of demand (read+write) MSHR hits (Count)
system.cpu.icache.overallMshrHits::cpu.inst          308                       # number of overall MSHR hits (Count)
system.cpu.icache.overallMshrHits::total          308                       # number of overall MSHR hits (Count)
system.cpu.icache.demandMshrMisses::cpu.inst          749                       # number of demand (read+write) MSHR misses (Count)
system.cpu.icache.demandMshrMisses::total          749                       # number of demand (read+write) MSHR misses (Count)
system.cpu.icache.overallMshrMisses::cpu.inst          749                       # number of overall MSHR misses (Count)
system.cpu.icache.overallMshrMisses::total          749                       # number of overall MSHR misses (Count)
system.cpu.icache.demandMshrMissLatency::cpu.inst     75064000                       # number of demand (read+write) MSHR miss ticks (Tick)
system.cpu.icache.demandMshrMissLatency::total     75064000                       # number of demand (read+write) MSHR miss ticks (Tick)
system.cpu.icache.overallMshrMissLatency::cpu.inst     75064000                       # number of overall MSHR miss ticks (Tick)
system.cpu.icache.overallMshrMissLatency::total     75064000                       # number of overall MSHR miss ticks (Tick)
system.cpu.icache.demandMshrMissRate::cpu.inst     0.000007                       # mshr miss ratio for demand accesses (Ratio)
system.cpu.icache.demandMshrMissRate::total     0.000007                       # mshr miss ratio for demand accesses (Ratio)
system.cpu.icache.overallMshrMissRate::cpu.inst     0.000007                       # mshr miss ratio for overall accesses (Ratio)
system.cpu.icache.overallMshrMissRate::total     0.000007                       # mshr miss ratio for overall accesses (Ratio)
system.cpu.icache.demandAvgMshrMissLatency::cpu.inst 100218.958611                       # average overall mshr miss latency ((Tick/Count))
system.cpu.icache.demandAvgMshrMissLatency::total 100218.958611                       # average overall mshr miss latency ((Tick/Count))
system.cpu.icache.overallAvgMshrMissLatency::cpu.inst 100218.958611                       # average overall mshr miss latency ((Tick/Count))
system.cpu.icache.overallAvgMshrMissLatency::total 100218.958611                       # average overall mshr miss latency ((Tick/Count))
system.cpu.icache.replacements                    319                       # number of replacements (Count)
system.cpu.icache.ReadReq.hits::cpu.inst    103988070                       # number of ReadReq hits (Count)
system.cpu.icache.ReadReq.hits::total       103988070                       # number of ReadReq hits (Count)
system.cpu.icache.ReadReq.misses::cpu.inst         1057                       # number of ReadReq misses (Count)
system.cpu.icache.ReadReq.misses::total          1057                       # number of ReadReq misses (Count)
system.cpu.icache.ReadReq.missLatency::cpu.inst    100539000                       # number of ReadReq miss ticks (Tick)
system.cpu.icache.ReadReq.missLatency::total    100539000                       # number of ReadReq miss ticks (Tick)
system.cpu.icache.ReadReq.accesses::cpu.inst    103989127                       # number of ReadReq accesses(hits+misses) (Count)
system.cpu.icache.ReadReq.accesses::total    103989127                       # number of ReadReq accesses(hits+misses) (Count)
system.cpu.icache.ReadReq.missRate::cpu.inst     0.000010                       # miss rate for ReadReq accesses (Ratio)
system.cpu.icache.ReadReq.missRate::total     0.000010                       # miss rate for ReadReq accesses (Ratio)
system.cpu.icache.ReadReq.avgMissLatency::cpu.inst 95117.313150                       # average ReadReq miss latency ((Tick/Count))
system.cpu.icache.ReadReq.avgMissLatency::total 95117.313150                       # average ReadReq miss latency ((Tick/Count))
system.cpu.icache.ReadReq.mshrHits::cpu.inst          308                       # number of ReadReq MSHR hits (Count)
system.cpu.icache.ReadReq.mshrHits::total          308                       # number of ReadReq MSHR hits (Count)
system.cpu.icache.ReadReq.mshrMisses::cpu.inst          749                       # number of ReadReq MSHR misses (Count)
system.cpu.icache.ReadReq.mshrMisses::total          749                       # number of ReadReq MSHR misses (Count)
system.cpu.icache.ReadReq.mshrMissLatency::cpu.inst     75064000                       # number of ReadReq MSHR miss ticks (Tick)
system.cpu.icache.ReadReq.mshrMissLatency::total     75064000                       # number of ReadReq MSHR miss ticks (Tick)
system.cpu.icache.ReadReq.mshrMissRate::cpu.inst     0.000007                       # mshr miss rate for ReadReq accesses (Ratio)
system.cpu.icache.ReadReq.mshrMissRate::total     0.000007                       # mshr miss rate for ReadReq accesses (Ratio)
system.cpu.icache.ReadReq.avgMshrMissLatency::cpu.inst 100218.958611                       # average ReadReq mshr miss latency ((Tick/Count))
system.cpu.icache.ReadReq.avgMshrMissLatency::total 100218.958611                       # average ReadReq mshr miss latency ((Tick/Count))
system.cpu.icache.power_state.pwrStateResidencyTicks::UNDEFINED 432541660000                       # Cumulative time (in ticks) in various power states (Tick)
system.cpu.icache.tags.tagsInUse           364.935550                       # Average ticks per tags in use ((Tick/Count))
system.cpu.icache.tags.totalRefs            103988819                       # Total number of references to valid blocks. (Count)
system.cpu.icache.tags.sampledRefs                749                       # Sample count of references to valid blocks. (Count)
system.cpu.icache.tags.avgRefs           138836.874499                       # Average number of references to valid blocks. ((Count/Count))
system.cpu.icache.tags.warmupTick              107000                       # The tick when the warmup percentage was hit. (Tick)
system.cpu.icache.tags.occupancies::cpu.inst   364.935550                       # Average occupied blocks per tick, per requestor ((Count/Tick))
system.cpu.icache.tags.avgOccs::cpu.inst     0.712765                       # Average percentage of cache occupancy ((Ratio/Tick))
system.cpu.icache.tags.avgOccs::total        0.712765                       # Average percentage of cache occupancy ((Ratio/Tick))
system.cpu.icache.tags.occupanciesTaskId::1024          430                       # Occupied blocks per task id (Count)
system.cpu.icache.tags.ageTaskId_1024::4          430                       # Occupied blocks per task id, per block age (Count)
system.cpu.icache.tags.ratioOccsTaskId::1024     0.839844                       # Ratio of occupied blocks and all blocks, per task id (Ratio)
system.cpu.icache.tags.tagAccesses          207979003                       # Number of tag accesses (Count)
system.cpu.icache.tags.dataAccesses         207979003                       # Number of data accesses (Count)
system.cpu.icache.tags.power_state.pwrStateResidencyTicks::UNDEFINED 432541660000                       # Cumulative time (in ticks) in various power states (Tick)
system.cpu.iew.idleCycles                           0                       # Number of cycles IEW is idle (Cycle)
system.cpu.iew.squashCycles                  15165090                       # Number of cycles IEW is squashing (Cycle)
system.cpu.iew.blockCycles                   82147589                       # Number of cycles IEW is blocking (Cycle)
system.cpu.iew.unblockCycles                  7252269                       # Number of cycles IEW is unblocking (Cycle)
system.cpu.iew.dispatchedInsts              986108048                       # Number of instructions dispatched to IQ (Count)
system.cpu.iew.dispSquashedInsts                  164                       # Number of squashed instructions skipped by dispatch (Count)
system.cpu.iew.dispLoadInsts                253000582                       # Number of dispatched load instructions (Count)
system.cpu.iew.dispStoreInsts               190300349                       # Number of dispatched store instructions (Count)
system.cpu.iew.dispNonSpecInsts              12716519                       # Number of dispatched non-speculative instructions (Count)
system.cpu.iew.iqFullEvents                        36                       # Number of times the IQ has become full, causing a stall (Count)
system.cpu.iew.lsqFullEvents                  8140842                       # Number of times the LSQ has become full, causing a stall (Count)
system.cpu.iew.memOrderViolationEvents          44916                       # Number of memory order violations (Count)
system.cpu.iew.predictedTakenIncorrect              4                       # Number of branches that were predicted taken incorrectly (Count)
system.cpu.iew.predictedNotTakenIncorrect     18032790                       # Number of branches that were predicted not taken incorrectly (Count)
system.cpu.iew.branchMispredicts             18032794                       # Number of branch mispredicts detected at execute (Count)
system.cpu.iew.instsToCommit                743750428                       # Cumulative count of insts sent to commit (Count)
system.cpu.iew.writebackCount               566226051                       # Cumulative count of insts written-back (Count)
system.cpu.iew.producerInst                 333074010                       # Number of instructions producing a value (Count)
system.cpu.iew.consumerInst                 448111280                       # Number of instructions consuming a value (Count)
system.cpu.iew.wbRate                        1.309067                       # Insts written-back per cycle ((Count/Cycle))
system.cpu.iew.wbFanout                      0.743284                       # Average fanout of values written-back ((Count/Count))
system.cpu.interrupts.clk_domain.clock          16000                       # Clock period in ticks (Tick)
system.cpu.lsq0.forwLoads                     3733625                       # Number of loads that had data forwarded from stores (Count)
system.cpu.lsq0.squashedLoads               227683246                       # Number of loads squashed (Count)
system.cpu.lsq0.ignoredResponses                21149                       # Number of memory responses ignored because the instruction is squashed (Count)
system.cpu.lsq0.memOrderViolation               44916                       # Number of memory ordering violations (Count)
system.cpu.lsq0.squashedStores              178803312                       # Number of stores squashed (Count)
system.cpu.lsq0.rescheduledLoads                   14                       # Number of loads that were rescheduled (Count)
system.cpu.lsq0.blockedByCache                  21878                       # Number of times an access to memory failed due to the cache being blocked (Count)
system.cpu.lsq0.loadToUse::samples           25251800                       # Distribution of cycle latency between the first time a load is issued and its completion (Unspecified)
system.cpu.lsq0.loadToUse::mean              3.721199                       # Distribution of cycle latency between the first time a load is issued and its completion (Unspecified)
system.cpu.lsq0.loadToUse::stdev             6.461617                       # Distribution of cycle latency between the first time a load is issued and its completion (Unspecified)
system.cpu.lsq0.loadToUse::0-9               25134128     99.53%     99.53% # Distribution of cycle latency between the first time a load is issued and its completion (Unspecified)
system.cpu.lsq0.loadToUse::10-19                 1084      0.00%     99.54% # Distribution of cycle latency between the first time a load is issued and its completion (Unspecified)
system.cpu.lsq0.loadToUse::20-29                 7473      0.03%     99.57% # Distribution of cycle latency between the first time a load is issued and its completion (Unspecified)
system.cpu.lsq0.loadToUse::30-39                 5034      0.02%     99.59% # Distribution of cycle latency between the first time a load is issued and its completion (Unspecified)
system.cpu.lsq0.loadToUse::40-49                 4845      0.02%     99.61% # Distribution of cycle latency between the first time a load is issued and its completion (Unspecified)
system.cpu.lsq0.loadToUse::50-59                 5551      0.02%     99.63% # Distribution of cycle latency between the first time a load is issued and its completion (Unspecified)
system.cpu.lsq0.loadToUse::60-69                 5366      0.02%     99.65% # Distribution of cycle latency between the first time a load is issued and its completion (Unspecified)
system.cpu.lsq0.loadToUse::70-79                 5269      0.02%     99.67% # Distribution of cycle latency between the first time a load is issued and its completion (Unspecified)
system.cpu.lsq0.loadToUse::80-89                10375      0.04%     99.71% # Distribution of cycle latency between the first time a load is issued and its completion (Unspecified)
system.cpu.lsq0.loadToUse::90-99                57434      0.23%     99.94% # Distribution of cycle latency between the first time a load is issued and its completion (Unspecified)
system.cpu.lsq0.loadToUse::100-109               1588      0.01%     99.95% # Distribution of cycle latency between the first time a load is issued and its completion (Unspecified)
system.cpu.lsq0.loadToUse::110-119               4825      0.02%     99.97% # Distribution of cycle latency between the first time a load is issued and its completion (Unspecified)
system.cpu.lsq0.loadToUse::120-129               4114      0.02%     99.98% # Distribution of cycle latency between the first time a load is issued and its completion (Unspecified)
system.cpu.lsq0.loadToUse::130-139                304      0.00%     99.98% # Distribution of cycle latency between the first time a load is issued and its completion (Unspecified)
system.cpu.lsq0.loadToUse::140-149                330      0.00%     99.98% # Distribution of cycle latency between the first time a load is issued and its completion (Unspecified)
[...]
system.mem_ctrl.dram.bytesWritten::total     71673920                       # Number of bytes written to this memory (Byte)
system.mem_ctrl.dram.numReads::cpu.inst           715                       # Number of read requests responded to by this memory (Count)
system.mem_ctrl.dram.numReads::cpu.data       2117256                       # Number of read requests responded to by this memory (Count)
system.mem_ctrl.dram.numReads::total          2117971                       # Number of read requests responded to by this memory (Count)
system.mem_ctrl.dram.numWrites::writebacks      1119905                       # Number of write requests responded to by this memory (Count)
system.mem_ctrl.dram.numWrites::total         1119905                       # Number of write requests responded to by this memory (Count)
system.mem_ctrl.dram.bwRead::cpu.inst          105793                       # Total read bandwidth from this memory ((Byte/Second))
system.mem_ctrl.dram.bwRead::cpu.data       313274758                       # Total read bandwidth from this memory ((Byte/Second))
system.mem_ctrl.dram.bwRead::total          313380552                       # Total read bandwidth from this memory ((Byte/Second))
system.mem_ctrl.dram.bwInstRead::cpu.inst       105793                       # Instruction read bandwidth from this memory ((Byte/Second))
system.mem_ctrl.dram.bwInstRead::total         105793                       # Instruction read bandwidth from this memory ((Byte/Second))
system.mem_ctrl.dram.bwWrite::writebacks    165704085                       # Write bandwidth from this memory ((Byte/Second))
system.mem_ctrl.dram.bwWrite::total         165704085                       # Write bandwidth from this memory ((Byte/Second))
system.mem_ctrl.dram.bwTotal::writebacks    165704085                       # Total bandwidth to/from this memory ((Byte/Second))
system.mem_ctrl.dram.bwTotal::cpu.inst         105793                       # Total bandwidth to/from this memory ((Byte/Second))
system.mem_ctrl.dram.bwTotal::cpu.data      313274758                       # Total bandwidth to/from this memory ((Byte/Second))
system.mem_ctrl.dram.bwTotal::total         479084637                       # Total bandwidth to/from this memory ((Byte/Second))
system.mem_ctrl.dram.readBursts               2117971                       # Number of DRAM read bursts (Count)
system.mem_ctrl.dram.writeBursts              1119879                       # Number of DRAM write bursts (Count)
system.mem_ctrl.dram.perBankRdBursts::0        132405                       # Per bank write bursts (Count)
system.mem_ctrl.dram.perBankRdBursts::1        132251                       # Per bank write bursts (Count)
system.mem_ctrl.dram.perBankRdBursts::2        132253                       # Per bank write bursts (Count)
system.mem_ctrl.dram.perBankRdBursts::3        132230                       # Per bank write bursts (Count)
system.mem_ctrl.dram.perBankRdBursts::4        132735                       # Per bank write bursts (Count)
system.mem_ctrl.dram.perBankRdBursts::5        132774                       # Per bank write bursts (Count)
system.mem_ctrl.dram.perBankRdBursts::6        132639                       # Per bank write bursts (Count)
system.mem_ctrl.dram.perBankRdBursts::7        132579                       # Per bank write bursts (Count)
system.mem_ctrl.dram.perBankRdBursts::8        132550                       # Per bank write bursts (Count)
system.mem_ctrl.dram.perBankRdBursts::9        132409                       # Per bank write bursts (Count)
system.mem_ctrl.dram.perBankRdBursts::10       132294                       # Per bank write bursts (Count)
system.mem_ctrl.dram.perBankRdBursts::11       132159                       # Per bank write bursts (Count)
system.mem_ctrl.dram.perBankRdBursts::12       132135                       # Per bank write bursts (Count)
system.mem_ctrl.dram.perBankRdBursts::13       132104                       # Per bank write bursts (Count)
system.mem_ctrl.dram.perBankRdBursts::14       132225                       # Per bank write bursts (Count)
system.mem_ctrl.dram.perBankRdBursts::15       132229                       # Per bank write bursts (Count)
system.mem_ctrl.dram.perBankWrBursts::0         70094                       # Per bank write bursts (Count)
system.mem_ctrl.dram.perBankWrBursts::1         70020                       # Per bank write bursts (Count)
system.mem_ctrl.dram.perBankWrBursts::2         70048                       # Per bank write bursts (Count)
system.mem_ctrl.dram.perBankWrBursts::3         70040                       # Per bank write bursts (Count)
system.mem_ctrl.dram.perBankWrBursts::4         69890                       # Per bank write bursts (Count)
system.mem_ctrl.dram.perBankWrBursts::5         70016                       # Per bank write bursts (Count)
system.mem_ctrl.dram.perBankWrBursts::6         70016                       # Per bank write bursts (Count)
system.mem_ctrl.dram.perBankWrBursts::7         70014                       # Per bank write bursts (Count)
system.mem_ctrl.dram.perBankWrBursts::8         69992                       # Per bank write bursts (Count)
system.mem_ctrl.dram.perBankWrBursts::9         69946                       # Per bank write bursts (Count)
system.mem_ctrl.dram.perBankWrBursts::10        69917                       # Per bank write bursts (Count)
system.mem_ctrl.dram.perBankWrBursts::11        69890                       # Per bank write bursts (Count)
system.mem_ctrl.dram.perBankWrBursts::12        69888                       # Per bank write bursts (Count)
system.mem_ctrl.dram.perBankWrBursts::13        70003                       # Per bank write bursts (Count)
system.mem_ctrl.dram.perBankWrBursts::14        70076                       # Per bank write bursts (Count)
system.mem_ctrl.dram.perBankWrBursts::15        70029                       # Per bank write bursts (Count)
system.mem_ctrl.dram.totQLat              13837195250                       # Total ticks spent queuing (Tick)
system.mem_ctrl.dram.totBusLat            10589855000                       # Total ticks spent in databus transfers (Tick)
system.mem_ctrl.dram.totMemAccLat         53549151500                       # Total ticks spent from burst creation until serviced by the DRAM (Tick)
system.mem_ctrl.dram.avgQLat                  6533.23                       # Average queueing delay per DRAM burst ((Tick/Count))
system.mem_ctrl.dram.avgBusLat                5000.00                       # Average bus latency per DRAM burst ((Tick/Count))
system.mem_ctrl.dram.avgMemAccLat            25283.23                       # Average memory access latency per DRAM burst ((Tick/Count))
system.mem_ctrl.dram.readRowHits              1865817                       # Number of row buffer hits during reads (Count)
system.mem_ctrl.dram.writeRowHits              966773                       # Number of row buffer hits during writes (Count)
system.mem_ctrl.dram.readRowHitRate             88.09                       # Row buffer hit rate for reads (Ratio)
system.mem_ctrl.dram.writeRowHitRate            86.33                       # Row buffer hit rate for writes (Ratio)
system.mem_ctrl.dram.bytesPerActivate::samples       405259                       # Bytes accessed per row activation (Byte)
system.mem_ctrl.dram.bytesPerActivate::mean   511.333088                       # Bytes accessed per row activation (Byte)
system.mem_ctrl.dram.bytesPerActivate::gmean   355.512953                       # Bytes accessed per row activation (Byte)
system.mem_ctrl.dram.bytesPerActivate::stdev   369.254120                       # Bytes accessed per row activation (Byte)
system.mem_ctrl.dram.bytesPerActivate::0-127        40333      9.95%      9.95% # Bytes accessed per row activation (Byte)
system.mem_ctrl.dram.bytesPerActivate::128-255       114496     28.25%     38.20% # Bytes accessed per row activation (Byte)
system.mem_ctrl.dram.bytesPerActivate::256-383        21192      5.23%     43.43% # Bytes accessed per row activation (Byte)
system.mem_ctrl.dram.bytesPerActivate::384-511        30800      7.60%     51.03% # Bytes accessed per row activation (Byte)
system.mem_ctrl.dram.bytesPerActivate::512-639        52544     12.97%     64.00% # Bytes accessed per row activation (Byte)
system.mem_ctrl.dram.bytesPerActivate::640-767        14073      3.47%     67.47% # Bytes accessed per row activation (Byte)
system.mem_ctrl.dram.bytesPerActivate::768-895        13566      3.35%     70.82% # Bytes accessed per row activation (Byte)
system.mem_ctrl.dram.bytesPerActivate::896-1023        13890      3.43%     74.25% # Bytes accessed per row activation (Byte)
system.mem_ctrl.dram.bytesPerActivate::1024-1151       104365     25.75%    100.00% # Bytes accessed per row activation (Byte)
system.mem_ctrl.dram.bytesPerActivate::total       405259                       # Bytes accessed per row activation (Byte)
system.mem_ctrl.dram.bytesRead              135550144                       # Total bytes read (Byte)
system.mem_ctrl.dram.bytesWritten            71672256                       # Total bytes written (Byte)
system.mem_ctrl.dram.avgRdBW               313.380552                       # Average DRAM read bandwidth in MiBytes/s ((Byte/Second))
system.mem_ctrl.dram.avgWrBW               165.700238                       # Average DRAM write bandwidth in MiBytes/s ((Byte/Second))
system.mem_ctrl.dram.peakBW                  12800.00                       # Theoretical peak bandwidth in MiByte/s ((Byte/Second))
system.mem_ctrl.dram.busUtil                     3.74                       # Data bus utilization in percentage (Ratio)
system.mem_ctrl.dram.busUtilRead                 2.45                       # Data bus utilization in percentage for reads (Ratio)
system.mem_ctrl.dram.busUtilWrite                1.29                       # Data bus utilization in percentage for writes (Ratio)
system.mem_ctrl.dram.pageHitRate                87.48                       # Row buffer hit rate, read and write combined (Ratio)
system.mem_ctrl.dram.power_state.pwrStateResidencyTicks::UNDEFINED 432541660000                       # Cumulative time (in ticks) in various power states (Tick)
system.mem_ctrl.dram.rank0.actEnergy       1450705200                       # Energy for activate commands per rank (pJ) (Joule)
system.mem_ctrl.dram.rank0.preEnergy        771064305                       # Energy for precharge commands per rank (pJ) (Joule)
system.mem_ctrl.dram.rank0.readEnergy      7567443240                       # Energy for read commands per rank (pJ) (Joule)
system.mem_ctrl.dram.rank0.writeEnergy     2923920360                       # Energy for write commands per rank (pJ) (Joule)
system.mem_ctrl.dram.rank0.refreshEnergy 34143866640.000004                       # Energy for refresh commands per rank (pJ) (Joule)
system.mem_ctrl.dram.rank0.actBackEnergy 144984799290                       # Energy for active background per rank (pJ) (Joule)
system.mem_ctrl.dram.rank0.preBackEnergy  44003534880                       # Energy for precharge background per rank (pJ) (Joule)
system.mem_ctrl.dram.rank0.actPowerDownEnergy            0                       # Energy for active power-down per rank (pJ) (Joule)
system.mem_ctrl.dram.rank0.prePowerDownEnergy            0                       # Energy for precharge power-down per rank (pJ) (Joule)
system.mem_ctrl.dram.rank0.selfRefreshEnergy            0                       # Energy for self refresh per rank (pJ) (Joule)
system.mem_ctrl.dram.rank0.totalEnergy   235845333915                       # Total energy per rank (pJ) (Joule)
system.mem_ctrl.dram.rank0.averagePower    545.254609                       # Core power per rank (mW) (Watt)
system.mem_ctrl.dram.rank0.totalIdleTime            0                       # Total Idle time Per DRAM Rank (Tick)
system.mem_ctrl.dram.rank0.pwrStateTime::IDLE 112565113000                       # Time in different power states (Tick)
system.mem_ctrl.dram.rank0.pwrStateTime::REF  14443260000                       # Time in different power states (Tick)
system.mem_ctrl.dram.rank0.pwrStateTime::SREF            0                       # Time in different power states (Tick)
system.mem_ctrl.dram.rank0.pwrStateTime::PRE_PDN            0                       # Time in different power states (Tick)
system.mem_ctrl.dram.rank0.pwrStateTime::ACT 305533287000                       # Time in different power states (Tick)
system.mem_ctrl.dram.rank0.pwrStateTime::ACT_PDN            0                       # Time in different power states (Tick)
system.mem_ctrl.dram.rank1.actEnergy       1442851200                       # Energy for activate commands per rank (pJ) (Joule)
system.mem_ctrl.dram.rank1.preEnergy        766893600                       # Energy for precharge commands per rank (pJ) (Joule)
system.mem_ctrl.dram.rank1.readEnergy      7554869700                       # Energy for read commands per rank (pJ) (Joule)
system.mem_ctrl.dram.rank1.writeEnergy     2921848020                       # Energy for write commands per rank (pJ) (Joule)
system.mem_ctrl.dram.rank1.refreshEnergy 34143866640.000004                       # Energy for refresh commands per rank (pJ) (Joule)
system.mem_ctrl.dram.rank1.actBackEnergy 143874087030                       # Energy for active background per rank (pJ) (Joule)
system.mem_ctrl.dram.rank1.preBackEnergy  44938871520                       # Energy for precharge background per rank (pJ) (Joule)
system.mem_ctrl.dram.rank1.actPowerDownEnergy            0                       # Energy for active power-down per rank (pJ) (Joule)
system.mem_ctrl.dram.rank1.prePowerDownEnergy            0                       # Energy for precharge power-down per rank (pJ) (Joule)
system.mem_ctrl.dram.rank1.selfRefreshEnergy            0                       # Energy for self refresh per rank (pJ) (Joule)
system.mem_ctrl.dram.rank1.totalEnergy   235643287710                       # Total energy per rank (pJ) (Joule)
system.mem_ctrl.dram.rank1.averagePower    544.787496                       # Core power per rank (mW) (Watt)
system.mem_ctrl.dram.rank1.totalIdleTime            0                       # Total Idle time Per DRAM Rank (Tick)
system.mem_ctrl.dram.rank1.pwrStateTime::IDLE 115004462000                       # Time in different power states (Tick)
system.mem_ctrl.dram.rank1.pwrStateTime::REF  14443260000                       # Time in different power states (Tick)
system.mem_ctrl.dram.rank1.pwrStateTime::SREF            0                       # Time in different power states (Tick)
system.mem_ctrl.dram.rank1.pwrStateTime::PRE_PDN            0                       # Time in different power states (Tick)
system.mem_ctrl.dram.rank1.pwrStateTime::ACT 303093938000                       # Time in different power states (Tick)
system.mem_ctrl.dram.rank1.pwrStateTime::ACT_PDN            0                       # Time in different power states (Tick)
system.mem_ctrl.power_state.pwrStateResidencyTicks::UNDEFINED 432541660000                       # Cumulative time (in ticks) in various power states (Tick)
system.membus.transDist::ReadResp             1025506                       # Transaction distribution (Count)
system.membus.transDist::WritebackDirty       1119905                       # Transaction distribution (Count)
system.membus.transDist::CleanEvict            965005                       # Transaction distribution (Count)
system.membus.transDist::ReadExReq            1092465                       # Transaction distribution (Count)
system.membus.transDist::ReadExResp           1092465                       # Transaction distribution (Count)
system.membus.transDist::ReadSharedReq        1025506                       # Transaction distribution (Count)
system.membus.pktCount_system.l2cache.mem_side_port::system.mem_ctrl.port      6320852                       # Packet count per connected requestor and responder (Count)
system.membus.pktCount_system.l2cache.mem_side_port::total      6320852                       # Packet count per connected requestor and responder (Count)
system.membus.pktCount::total                 6320852                       # Packet count per connected requestor and responder (Count)
system.membus.pktSize_system.l2cache.mem_side_port::system.mem_ctrl.port    207224064                       # Cumulative packet size per connected requestor and responder (Byte)
system.membus.pktSize_system.l2cache.mem_side_port::total    207224064                       # Cumulative packet size per connected requestor and responder (Byte)
system.membus.pktSize::total                207224064                       # Cumulative packet size per connected requestor and responder (Byte)
system.membus.snoops                                0                       # Total snoops (Count)
system.membus.snoopTraffic                          0                       # Total snoop traffic (Byte)
system.membus.snoopFanout::samples            2117971                       # Request fanout histogram (Count)
system.membus.snoopFanout::mean                     0                       # Request fanout histogram (Count)
system.membus.snoopFanout::stdev                    0                       # Request fanout histogram (Count)
system.membus.snoopFanout::underflows               0      0.00%      0.00% # Request fanout histogram (Count)
system.membus.snoopFanout::0                  2117971    100.00%    100.00% # Request fanout histogram (Count)
system.membus.snoopFanout::1                        0      0.00%    100.00% # Request fanout histogram (Count)
system.membus.snoopFanout::overflows                0      0.00%    100.00% # Request fanout histogram (Count)
system.membus.snoopFanout::min_value                0                       # Request fanout histogram (Count)
system.membus.snoopFanout::max_value                0                       # Request fanout histogram (Count)
system.membus.snoopFanout::total              2117971                       # Request fanout histogram (Count)
system.membus.power_state.pwrStateResidencyTicks::UNDEFINED 432541660000                       # Cumulative time (in ticks) in various power states (Tick)
system.membus.reqLayer2.occupancy          8682501000                       # Layer occupancy (ticks) (Tick)
system.membus.reqLayer2.utilization               0.0                       # Layer utilization (Ratio)
system.membus.respLayer0.occupancy        11177089250                       # Layer occupancy (ticks) (Tick)
system.membus.respLayer0.utilization              0.0                       # Layer utilization (Ratio)
system.membus.snoop_filter.totRequests        4202881                       # Total number of requests made to the snoop filter. (Count)
system.membus.snoop_filter.hitSingleRequests      2084910                       # Number of requests hitting in the snoop filter with a single holder of the requested data. (Count)
system.membus.snoop_filter.hitMultiRequests            0                       # Number of requests hitting in the snoop filter with multiple (>1) holders of the requested data. (Count)
system.membus.snoop_filter.totSnoops                0                       # Total number of snoops made to the snoop filter. (Count)
system.membus.snoop_filter.hitSingleSnoops            0                       # Number of snoops hitting in the snoop filter with a single holder of the requested data. (Count)
system.membus.snoop_filter.hitMultiSnoops            0                       # Number of snoops hitting in the snoop filter with multiple (>1) holders of the requested data. (Count)
system.workload.inst.arm                            0                       # number of arm instructions executed (Count)
system.workload.inst.quiesce                        0                       # number of quiesce instructions executed (Count)

---------- End Simulation Statistics   ----------
