
---------- Begin Simulation Statistics ----------
simSeconds                                   0.404595                       # Number of seconds simulated (Second)
simTicks                                 404595431000                       # Number of ticks simulated (Tick)
finalTick                                404595431000                       # Number of ticks from beginning of simulation (restored from checkpoints and never reset) (Tick)
simFreq                                  1000000000000                       # The number of ticks per simulated second ((Tick/Second))
hostSeconds                                   1825.69                       # Real time elapsed on the host (Second)
hostTickRate                                221612456                       # The number of ticks simulated per host second (ticks/s) ((Tick/Second))
hostMemory                                    8530676                       # Number of bytes of host memory used (Byte)
simInsts                                     50000000                       # Number of instructions simulated (Count)
simOps                                       62368874                       # Number of ops (including micro ops) simulated (Count)
hostInstRate                                    27387                       # Simulator instruction rate (inst/s) ((Count/Second))
hostOpRate                                      34162                       # Simulator op (including micro ops) rate (op/s) ((Count/Second))
system.clk_domain.clock                          1000                       # Clock period in ticks (Tick)
system.clk_domain.voltage_domain.voltage            1                       # Voltage in Volts (Volt)
system.cpu.numCycles                        404595432                       # Number of cpu cycles simulated (Cycle)
system.cpu.numWorkItemsStarted                      0                       # Number of work items this cpu started (Count)
system.cpu.numWorkItemsCompleted                    0                       # Number of work items this cpu completed (Count)
system.cpu.instsAdded                       843076545                       # Number of instructions added to the IQ (excludes non-spec) (Count)
system.cpu.nonSpecInstsAdded                 29326425                       # Number of non-speculative instructions added to the IQ (Count)
system.cpu.instsIssued                      841818261                       # Number of instructions issued (Count)
system.cpu.squashedInstsIssued                   1092                       # Number of squashed instructions issued (Count)
system.cpu.squashedInstsExamined            810034096                       # Number of squashed instructions iterated over during squash; mainly for profiling (Count)
system.cpu.squashedOperandsExamined          63331675                       # Number of squashed operands that are examined and possibly removed from graph (Count)
system.cpu.squashedNonSpecRemoved            28437673                       # Number of squashed non-spec instructions that were removed (Count)
system.cpu.numIssuedDist::samples           404568948                       # Number of insts issued each cycle (Count)
system.cpu.numIssuedDist::mean               2.080778                       # Number of insts issued each cycle (Count)
system.cpu.numIssuedDist::stdev              2.782040                       # Number of insts issued each cycle (Count)
system.cpu.numIssuedDist::underflows                0      0.00%      0.00% # Number of insts issued each cycle (Count)
system.cpu.numIssuedDist::0                 236071210     58.35%     58.35% # Number of insts issued each cycle (Count)
system.cpu.numIssuedDist::1                  13197827      3.26%     61.61% # Number of insts issued each cycle (Count)
system.cpu.numIssuedDist::2                   8561412      2.12%     63.73% # Number of insts issued each cycle (Count)
system.cpu.numIssuedDist::3                   9512503      2.35%     66.08% # Number of insts issued each cycle (Count)
system.cpu.numIssuedDist::4                  35242257      8.71%     74.79% # Number of insts issued each cycle (Count)
system.cpu.numIssuedDist::5                  37854224      9.36%     84.15% # Number of insts issued each cycle (Count)
system.cpu.numIssuedDist::6                  20031648      4.95%     89.10% # Number of insts issued each cycle (Count)
system.cpu.numIssuedDist::7                  20252871      5.01%     94.11% # Number of insts issued each cycle (Count)
system.cpu.numIssuedDist::8                  23844996      5.89%    100.00% # Number of insts issued each cycle (Count)
system.cpu.numIssuedDist::overflows                 0      0.00%    100.00% # Number of insts issued each cycle (Count)
system.cpu.numIssuedDist::min_value                 0                       # Number of insts issued each cycle (Count)
system.cpu.numIssuedDist::max_value                 8                       # Number of insts issued each cycle (Count)
system.cpu.numIssuedDist::total             404568948                       # Number of insts issued each cycle (Count)
system.cpu.statFuBusy::No_OpClass                   0      0.00%      0.00% # attempts to use FU when none available (Count)
system.cpu.statFuBusy::IntAlu                    1862      0.00%      0.00% # attempts to use FU when none available (Count)
system.cpu.statFuBusy::IntMult                      0      0.00%      0.00% # attempts to use FU when none available (Count)
system.cpu.statFuBusy::IntDiv                       0      0.00%      0.00% # attempts to use FU when none available (Count)
system.cpu.statFuBusy::FloatAdd                     0      0.00%      0.00% # attempts to use FU when none available (Count)
system.cpu.statFuBusy::FloatCmp                     0      0.00%      0.00% # attempts to use FU when none available (Count)
system.cpu.statFuBusy::FloatCvt                     0      0.00%      0.00% # attempts to use FU when none available (Count)
system.cpu.statFuBusy::FloatMult                    0      0.00%      0.00% # attempts to use FU when none available (Count)
system.cpu.statFuBusy::FloatMultAcc                 0      0.00%      0.00% # attempts to use FU when none available (Count)
system.cpu.statFuBusy::FloatDiv                     0      0.00%      0.00% # attempts to use FU when none available (Count)
system.cpu.statFuBusy::FloatMisc                    0      0.00%      0.00% # attempts to use FU when none available (Count)
system.cpu.statFuBusy::FloatSqrt                    0      0.00%      0.00% # attempts to use FU when none available (Count)
system.cpu.statFuBusy::SimdAdd                      0      0.00%      0.00% # attempts to use FU when none available (Count)
system.cpu.statFuBusy::SimdAddAcc                   0      0.00%      0.00% # attempts to use FU when none available (Count)
system.cpu.statFuBusy::SimdAlu                     12      0.00%      0.00% # attempts to use FU when none available (Count)
system.cpu.statFuBusy::SimdCmp                      0      0.00%      0.00% # attempts to use FU when none available (Count)
system.cpu.statFuBusy::SimdCvt                      4      0.00%      0.00% # attempts to use FU when none available (Count)
system.cpu.statFuBusy::SimdMisc                     3      0.00%      0.00% # attempts to use FU when none available (Count)
system.cpu.statFuBusy::SimdMult                     0      0.00%      0.00% # attempts to use FU when none available (Count)
system.cpu.statFuBusy::SimdMultAcc                  0      0.00%      0.00% # attempts to use FU when none available (Count)
system.cpu.statFuBusy::SimdShift                    0      0.00%      0.00% # attempts to use FU when none available (Count)
system.cpu.statFuBusy::SimdShiftAcc                 0      0.00%      0.00% # attempts to use FU when none available (Count)
system.cpu.statFuBusy::SimdDiv                      0      0.00%      0.00% # attempts to use FU when none available (Count)
system.cpu.statFuBusy::SimdSqrt                     0      0.00%      0.00% # attempts to use FU when none available (Count)
system.cpu.statFuBusy::SimdFloatAdd                 0      0.00%      0.00% # attempts to use FU when none available (Count)
system.cpu.statFuBusy::SimdFloatAlu                 0      0.00%      0.00% # attempts to use FU when none available (Count)
system.cpu.statFuBusy::SimdFloatCmp                 0      0.00%      0.00% # attempts to use FU when none available (Count)
system.cpu.statFuBusy::SimdFloatCvt                 0      0.00%      0.00% # attempts to use FU when none available (Count)
system.cpu.statFuBusy::SimdFloatDiv                 0      0.00%      0.00% # attempts to use FU when none available (Count)
system.cpu.statFuBusy::SimdFloatMisc                0      0.00%      0.00% # attempts to use FU when none available (Count)
system.cpu.statFuBusy::SimdFloatMult                0      0.00%      0.00% # attempts to use FU when none available (Count)
system.cpu.statFuBusy::SimdFloatMultAcc             0      0.00%      0.00% # attempts to use FU when none available (Count)
system.cpu.statFuBusy::SimdFloatSqrt                0      0.00%      0.00% # attempts to use FU when none available (Count)
system.cpu.statFuBusy::SimdReduceAdd                0      0.00%      0.00% # attempts to use FU when none available (Count)
system.cpu.statFuBusy::SimdReduceAlu                0      0.00%      0.00% # attempts to use FU when none available (Count)
system.cpu.statFuBusy::SimdReduceCmp                0      0.00%      0.00% # attempts to use FU when none available (Count)
system.cpu.statFuBusy::SimdFloatReduceAdd            0      0.00%      0.00% # attempts to use FU when none available (Count)
system.cpu.statFuBusy::SimdFloatReduceCmp            0      0.00%      0.00% # attempts to use FU when none available (Count)
system.cpu.statFuBusy::SimdAes                      0      0.00%      0.00% # attempts to use FU when none available (Count)
system.cpu.statFuBusy::SimdAesMix                   0      0.00%      0.00% # attempts to use FU when none available (Count)
system.cpu.statFuBusy::SimdSha1Hash                 0      0.00%      0.00% # attempts to use FU when none available (Count)
system.cpu.statFuBusy::SimdSha1Hash2                0      0.00%      0.00% # attempts to use FU when none available (Count)
system.cpu.statFuBusy::SimdSha256Hash               0      0.00%      0.00% # attempts to use FU when none available (Count)
system.cpu.statFuBusy::SimdSha256Hash2              0      0.00%      0.00% # attempts to use FU when none available (Count)
system.cpu.statFuBusy::SimdShaSigma2                0      0.00%      0.00% # attempts to use FU when none available (Count)
system.cpu.statFuBusy::SimdShaSigma3                0      0.00%      0.00% # attempts to use FU when none available (Count)
system.cpu.statFuBusy::SimdPredAlu                  0      0.00%      0.00% # attempts to use FU when none available (Count)
system.cpu.statFuBusy::MemRead               66429985     91.14%     91.14% # attempts to use FU when none available (Count)
system.cpu.statFuBusy::MemWrite               6454348      8.86%    100.00% # attempts to use FU when none available (Count)
system.cpu.statFuBusy::FloatMemRead                 5      0.00%    100.00% # attempts to use FU when none available (Count)
system.cpu.statFuBusy::FloatMemWrite               36      0.00%    100.00% # attempts to use FU when none available (Count)
system.cpu.statFuBusy::IprAccess                    0      0.00%    100.00% # attempts to use FU when none available (Count)
system.cpu.statFuBusy::InstPrefetch                 0      0.00%    100.00% # attempts to use FU when none available (Count)
system.cpu.statIssuedInstType_0::No_OpClass    233826654     27.78%     27.78% # Number of instructions issued per FU type, per thread (Count)
system.cpu.statIssuedInstType_0::IntAlu     114491560     13.60%     41.38% # Number of instructions issued per FU type, per thread (Count)
system.cpu.statIssuedInstType_0::IntMult       131073      0.02%     41.39% # Number of instructions issued per FU type, per thread (Count)
system.cpu.statIssuedInstType_0::IntDiv            78      0.00%     41.39% # Number of instructions issued per FU type, per thread (Count)
system.cpu.statIssuedInstType_0::FloatAdd           29      0.00%     41.39% # Number of instructions issued per FU type, per thread (Count)
system.cpu.statIssuedInstType_0::FloatCmp            0      0.00%     41.39% # Number of instructions issued per FU type, per thread (Count)
system.cpu.statIssuedInstType_0::FloatCvt            0      0.00%     41.39% # Number of instructions issued per FU type, per thread (Count)
system.cpu.statIssuedInstType_0::FloatMult            0      0.00%     41.39% # Number of instructions issued per FU type, per thread (Count)
system.cpu.statIssuedInstType_0::FloatMultAcc            0      0.00%     41.39% # Number of instructions issued per FU type, per thread (Count)
system.cpu.statIssuedInstType_0::FloatDiv            0      0.00%     41.39% # Number of instructions issued per FU type, per thread (Count)
system.cpu.statIssuedInstType_0::FloatMisc            0      0.00%     41.39% # Number of instructions issued per FU type, per thread (Count)
system.cpu.statIssuedInstType_0::FloatSqrt            0      0.00%     41.39% # Number of instructions issued per FU type, per thread (Count)
system.cpu.statIssuedInstType_0::SimdAdd            0      0.00%     41.39% # Number of instructions issued per FU type, per thread (Count)
system.cpu.statIssuedInstType_0::SimdAddAcc            0      0.00%     41.39% # Number of instructions issued per FU type, per thread (Count)
system.cpu.statIssuedInstType_0::SimdAlu          176      0.00%     41.39% # Number of instructions issued per FU type, per thread (Count)
system.cpu.statIssuedInstType_0::SimdCmp            0      0.00%     41.39% # Number of instructions issued per FU type, per thread (Count)
system.cpu.statIssuedInstType_0::SimdCvt          134      0.00%     41.39% # Number of instructions issued per FU type, per thread (Count)
system.cpu.statIssuedInstType_0::SimdMisc          267      0.00%     41.39% # Number of instructions issued per FU type, per thread (Count)
system.cpu.statIssuedInstType_0::SimdMult            0      0.00%     41.39% # Number of instructions issued per FU type, per thread (Count)
system.cpu.statIssuedInstType_0::SimdMultAcc            0      0.00%     41.39% # Number of instructions issued per FU type, per thread (Count)
system.cpu.statIssuedInstType_0::SimdShift            0      0.00%     41.39% # Number of instructions issued per FU type, per thread (Count)
system.cpu.statIssuedInstType_0::SimdShiftAcc            0      0.00%     41.39% # Number of instructions issued per FU type, per thread (Count)
system.cpu.statIssuedInstType_0::SimdDiv            0      0.00%     41.39% # Number of instructions issued per FU type, per thread (Count)
system.cpu.statIssuedInstType_0::SimdSqrt            0      0.00%     41.39% # Number of instructions issued per FU type, per thread (Count)
system.cpu.statIssuedInstType_0::SimdFloatAdd            0      0.00%     41.39% # Number of instructions issued per FU type, per thread (Count)
system.cpu.statIssuedInstType_0::SimdFloatAlu            0      0.00%     41.39% # Number of instructions issued per FU type, per thread (Count)
system.cpu.statIssuedInstType_0::SimdFloatCmp            0      0.00%     41.39% # Number of instructions issued per FU type, per thread (Count)
system.cpu.statIssuedInstType_0::SimdFloatCvt            0      0.00%     41.39% # Number of instructions issued per FU type, per thread (Count)
system.cpu.statIssuedInstType_0::SimdFloatDiv            0      0.00%     41.39% # Number of instructions issued per FU type, per thread (Count)
system.cpu.statIssuedInstType_0::SimdFloatMisc            0      0.00%     41.39% # Number of instructions issued per FU type, per thread (Count)
system.cpu.statIssuedInstType_0::SimdFloatMult            0      0.00%     41.39% # Number of instructions issued per FU type, per thread (Count)
system.cpu.statIssuedInstType_0::SimdFloatMultAcc            0      0.00%     41.39% # Number of instructions issued per FU type, per thread (Count)
system.cpu.statIssuedInstType_0::SimdFloatSqrt            0      0.00%     41.39% # Number of instructions issued per FU type, per thread (Count)
system.cpu.statIssuedInstType_0::SimdReduceAdd            0      0.00%     41.39% # Number of instructions issued per FU type, per thread (Count)
system.cpu.statIssuedInstType_0::SimdReduceAlu            0      0.00%     41.39% # Number of instructions issued per FU type, per thread (Count)
system.cpu.statIssuedInstType_0::SimdReduceCmp            0      0.00%     41.39% # Number of instructions issued per FU type, per thread (Count)
system.cpu.statIssuedInstType_0::SimdFloatReduceAdd            0      0.00%     41.39% # Number of instructions issued per FU type, per thread (Count)
system.cpu.statIssuedInstType_0::SimdFloatReduceCmp            0      0.00%     41.39% # Number of instructions issued per FU type, per thread (Count)
system.cpu.statIssuedInstType_0::SimdAes            0      0.00%     41.39% # Number of instructions issued per FU type, per thread (Count)
system.cpu.statIssuedInstType_0::SimdAesMix            0      0.00%     41.39% # Number of instructions issued per FU type, per thread (Count)
system.cpu.statIssuedInstType_0::SimdSha1Hash            0      0.00%     41.39% # Number of instructions issued per FU type, per thread (Count)
system.cpu.statIssuedInstType_0::SimdSha1Hash2            0      0.00%     41.39% # Number of instructions issued per FU type, per thread (Count)
system.cpu.statIssuedInstType_0::SimdSha256Hash            0      0.00%     41.39% # Number of instructions issued per FU type, per thread (Count)
system.cpu.statIssuedInstType_0::SimdSha256Hash2            0      0.00%     41.39% # Number of instructions issued per FU type, per thread (Count)
system.cpu.statIssuedInstType_0::SimdShaSigma2            0      0.00%     41.39% # Number of instructions issued per FU type, per thread (Count)
system.cpu.statIssuedInstType_0::SimdShaSigma3            0      0.00%     41.39% # Number of instructions issued per FU type, per thread (Count)
system.cpu.statIssuedInstType_0::SimdPredAlu            0      0.00%     41.39% # Number of instructions issued per FU type, per thread (Count)
system.cpu.statIssuedInstType_0::MemRead    255338988     30.33%     71.72% # Number of instructions issued per FU type, per thread (Count)
system.cpu.statIssuedInstType_0::MemWrite    238028983     28.28%    100.00% # Number of instructions issued per FU type, per thread (Count)
system.cpu.statIssuedInstType_0::FloatMemRead          108      0.00%    100.00% # Number of instructions issued per FU type, per thread (Count)
system.cpu.statIssuedInstType_0::FloatMemWrite          211      0.00%    100.00% # Number of instructions issued per FU type, per thread (Count)
system.cpu.statIssuedInstType_0::IprAccess            0      0.00%    100.00% # Number of instructions issued per FU type, per thread (Count)
system.cpu.statIssuedInstType_0::InstPrefetch            0      0.00%    100.00% # Number of instructions issued per FU type, per thread (Count)
system.cpu.statIssuedInstType_0::total      841818261                       # Number of instructions issued per FU type, per thread (Count)
system.cpu.issueRate                         2.080642                       # Inst issue rate ((Count/Cycle))
system.cpu.fuBusy                            72886255                       # FU busy when requested (Count)
system.cpu.fuBusyRate                        0.086582                       # FU busy rate (busy events/executed inst) ((Count/Count))
system.cpu.intInstQueueReads               2161090700                       # Number of integer instruction queue reads (Count)
system.cpu.intInstQueueWrites              1682436614                       # Number of integer instruction queue writes (Count)
system.cpu.intInstQueueWakeupAccesses       591549259                       # Number of integer instruction queue wakeup accesses (Count)
system.cpu.fpInstQueueReads                      2117                       # Number of floating instruction queue reads (Count)
system.cpu.fpInstQueueWrites                     1427                       # Number of floating instruction queue writes (Count)
system.cpu.fpInstQueueWakeupAccesses              949                       # Number of floating instruction queue wakeup accesses (Count)
system.cpu.vecInstQueueReads                        0                       # Number of vector instruction queue reads (Count)
system.cpu.vecInstQueueWrites                       0                       # Number of vector instruction queue writes (Count)
system.cpu.vecInstQueueWakeupAccesses               0                       # Number of vector instruction queue wakeup accesses (Count)
system.cpu.intAluAccesses                   680876813                       # Number of integer alu accesses (Count)
system.cpu.fpAluAccesses                         1049                       # Number of floating point alu accesses (Count)
system.cpu.vecAluAccesses                           0                       # Number of vector alu accesses (Count)
system.cpu.numInsts                         839548169                       # Number of executed instructions (Count)
system.cpu.numLoadInsts                     255278051                       # Number of load instructions executed (Count)
system.cpu.numSquashedInsts                   2270092                       # Number of squashed instructions skipped in execute (Count)
system.cpu.numSwp                                   0                       # Number of swp insts executed (Count)
system.cpu.numNop                                   0                       # Number of nop insts executed (Count)
system.cpu.numRefs                          491113269                       # Number of memory reference insts executed (Count)
system.cpu.numBranches                       17714104                       # Number of branches executed (Count)
system.cpu.numStoreInsts                    235835218                       # Number of stores executed (Count)
system.cpu.numRate                           2.075031                       # Inst execution rate ((Count/Cycle))
system.cpu.timesIdled                             387                       # Number of times that the entire CPU went into an idle state and unscheduled itself (Count)
system.cpu.idleCycles                           26484                       # Total number of cycles that the CPU has spent unscheduled due to idling (Cycle)
system.cpu.committedInsts                    50000000                       # Number of Instructions Simulated (Count)
system.cpu.committedOps                      62368874                       # Number of Ops (including micro ops) Simulated (Count)
system.cpu.cpi                               8.091909                       # CPI: Cycles Per Instruction ((Cycle/Count))
system.cpu.totalCpi                          8.091909                       # CPI: Total CPI of All Threads ((Cycle/Count))
system.cpu.ipc                               0.123580                       # IPC: Instructions Per Cycle ((Count/Cycle))
system.cpu.totalIpc                          0.123580                       # IPC: Total IPC of All Threads ((Count/Cycle))
system.cpu.intRegfileReads                  866149834                       # Number of integer regfile reads (Count)
system.cpu.intRegfileWrites                 343219423                       # Number of integer regfile writes (Count)
system.cpu.fpRegfileReads                        1532                       # Number of floating regfile reads (Count)
system.cpu.fpRegfileWrites                        657                       # Number of floating regfile writes (Count)
system.cpu.ccRegfileReads                   102244869                       # number of cc regfile reads (Count)
system.cpu.ccRegfileWrites                   45381476                       # number of cc regfile writes (Count)
system.cpu.miscRegfileReads                 526523363                       # number of misc regfile reads (Count)
system.cpu.MemDepUnit__0.insertedLoads      255492842                       # Number of loads inserted to the mem dependence unit. (Count)
system.cpu.MemDepUnit__0.insertedStores     239498980                       # Number of stores inserted to the mem dependence unit. (Count)
system.cpu.MemDepUnit__0.conflictingLoads      5891276                       # Number of conflicting loads. (Count)
system.cpu.MemDepUnit__0.conflictingStores       783456                       # Number of conflicting stores. (Count)
system.cpu.MemDepUnit__1.insertedLoads              0                       # Number of loads inserted to the mem dependence unit. (Count)
system.cpu.MemDepUnit__1.insertedStores             0                       # Number of stores inserted to the mem dependence unit. (Count)
system.cpu.MemDepUnit__1.conflictingLoads            0                       # Number of conflicting loads. (Count)
system.cpu.MemDepUnit__1.conflictingStores            0                       # Number of conflicting stores. (Count)
system.cpu.MemDepUnit__2.insertedLoads              0                       # Number of loads inserted to the mem dependence unit. (Count)
system.cpu.MemDepUnit__2.insertedStores             0                       # Number of stores inserted to the mem dependence unit. (Count)
system.cpu.MemDepUnit__2.conflictingLoads            0                       # Number of conflicting loads. (Count)
system.cpu.MemDepUnit__2.conflictingStores            0                       # Number of conflicting stores. (Count)
system.cpu.MemDepUnit__3.insertedLoads              0                       # Number of loads inserted to the mem dependence unit. (Count)
system.cpu.MemDepUnit__3.insertedStores             0                       # Number of stores inserted to the mem dependence unit. (Count)
system.cpu.MemDepUnit__3.conflictingLoads            0                       # Number of conflicting loads. (Count)
system.cpu.MemDepUnit__3.conflictingStores            0                       # Number of conflicting stores. (Count)
system.cpu.branchPred.lookups                22498506                       # Number of BP lookups (Count)
system.cpu.branchPred.condPredicted          21730225                       # Number of conditional branches predicted (Count)
system.cpu.branchPred.condIncorrect             73084                       # Number of conditional branches incorrect (Count)
system.cpu.branchPred.BTBLookups             21759653                       # Number of BTB lookups (Count)
system.cpu.branchPred.BTBHits                21756159                       # Number of BTB hits (Count)
system.cpu.branchPred.BTBHitRatio            0.999839                       # BTB Hit Ratio (Ratio)
system.cpu.branchPred.RASUsed                   25702                       # Number of times the RAS was used to get a target. (Count)
system.cpu.branchPred.RASIncorrect                  7                       # Number of incorrect RAS predictions. (Count)
system.cpu.branchPred.indirectLookups             292                       # Number of indirect predictor lookups. (Count)
system.cpu.branchPred.indirectHits                 30                       # Number of indirect target hits. (Count)
system.cpu.branchPred.indirectMisses              262                       # Number of indirect misses. (Count)
system.cpu.branchPred.indirectMispredicted           81                       # Number of mispredicted indirect branches. (Count)
system.cpu.commit.commitSquashedInsts       534690221                       # The number of squashed insts skipped by commit (Count)
system.cpu.commit.commitNonSpecStalls          888752                       # The number of times commit has been forced to stall to communicate backwards (Count)
system.cpu.commit.branchMispredicts             72495                       # The number of times a branch was mispredicted (Count)
system.cpu.commit.numCommittedDist::samples    335167018                       # Number of insts commited each cycle (Count)
system.cpu.commit.numCommittedDist::mean     0.186083                       # Number of insts commited each cycle (Count)
system.cpu.commit.numCommittedDist::stdev     0.973716                       # Number of insts commited each cycle (Count)
system.cpu.commit.numCommittedDist::underflows            0      0.00%      0.00% # Number of insts commited each cycle (Count)
system.cpu.commit.numCommittedDist::0       312872401     93.35%     93.35% # Number of insts commited each cycle (Count)
system.cpu.commit.numCommittedDist::1        11869221      3.54%     96.89% # Number of insts commited each cycle (Count)
system.cpu.commit.numCommittedDist::2         3005010      0.90%     97.79% # Number of insts commited each cycle (Count)
system.cpu.commit.numCommittedDist::3         2367545      0.71%     98.49% # Number of insts commited each cycle (Count)
system.cpu.commit.numCommittedDist::4          253444      0.08%     98.57% # Number of insts commited each cycle (Count)
system.cpu.commit.numCommittedDist::5          453524      0.14%     98.70% # Number of insts commited each cycle (Count)
system.cpu.commit.numCommittedDist::6          289937      0.09%     98.79% # Number of insts commited each cycle (Count)
system.cpu.commit.numCommittedDist::7           81508      0.02%     98.81% # Number of insts commited each cycle (Count)
system.cpu.commit.numCommittedDist::8         3974428      1.19%    100.00% # Number of insts commited each cycle (Count)
system.cpu.commit.numCommittedDist::overflows            0      0.00%    100.00% # Number of insts commited each cycle (Count)
system.cpu.commit.numCommittedDist::min_value            0                       # Number of insts commited each cycle (Count)
system.cpu.commit.numCommittedDist::max_value            8                       # Number of insts commited each cycle (Count)
system.cpu.commit.numCommittedDist::total    335167018                       # Number of insts commited each cycle (Count)
system.cpu.commit.instsCommitted             50000000                       # Number of instructions committed (Count)
system.cpu.commit.opsCommitted               62368874                       # Number of ops (including micro ops) committed (Count)
system.cpu.commit.memRefs                    36814373                       # Number of memory references committed (Count)
system.cpu.commit.loads                      25317336                       # Number of loads committed (Count)
system.cpu.commit.amos                              0                       # Number of atomic instructions committed (Count)
system.cpu.commit.membars                          48                       # Number of memory barriers committed (Count)
system.cpu.commit.branches                    3201950                       # Number of branches committed (Count)
system.cpu.commit.vectorInstructions                0                       # Number of committed Vector instructions. (Count)
system.cpu.commit.floating                        835                       # Number of committed floating point instructions. (Count)
system.cpu.commit.integer                    61431729                       # Number of committed integer instructions. (Count)
system.cpu.commit.functionCalls                 21390                       # Number of function calls committed. (Count)
system.cpu.commit.committedInstType_0::No_OpClass       888800      1.43%      1.43% # Class of committed instruction (Count)
system.cpu.commit.committedInstType_0::IntAlu     24534233     39.34%     40.76% # Class of committed instruction (Count)
system.cpu.commit.committedInstType_0::IntMult       130868      0.21%     40.97% # Class of committed instruction (Count)
system.cpu.commit.committedInstType_0::IntDiv           70      0.00%     40.97% # Class of committed instruction (Count)
system.cpu.commit.committedInstType_0::FloatAdd           21      0.00%     40.97% # Class of committed instruction (Count)
system.cpu.commit.committedInstType_0::FloatCmp            0      0.00%     40.97% # Class of committed instruction (Count)
system.cpu.commit.committedInstType_0::FloatCvt            0      0.00%     40.97% # Class of committed instruction (Count)
system.cpu.commit.committedInstType_0::FloatMult            0      0.00%     40.97% # Class of committed instruction (Count)
system.cpu.commit.committedInstType_0::FloatMultAcc            0      0.00%     40.97% # Class of committed instruction (Count)
system.cpu.commit.committedInstType_0::FloatDiv            0      0.00%     40.97% # Class of committed instruction (Count)
system.cpu.commit.committedInstType_0::FloatMisc            0      0.00%     40.97% # Class of committed instruction (Count)
system.cpu.commit.committedInstType_0::FloatSqrt            0      0.00%     40.97% # Class of committed instruction (Count)
system.cpu.commit.committedInstType_0::SimdAdd            0      0.00%     40.97% # Class of committed instruction (Count)
system.cpu.commit.committedInstType_0::SimdAddAcc            0      0.00%     40.97% # Class of committed instruction (Count)
system.cpu.commit.committedInstType_0::SimdAlu          142      0.00%     40.97% # Class of committed instruction (Count)
system.cpu.commit.committedInstType_0::SimdCmp            0      0.00%     40.97% # Class of committed instruction (Count)
system.cpu.commit.committedInstType_0::SimdCvt          126      0.00%     40.97% # Class of committed instruction (Count)
system.cpu.commit.committedInstType_0::SimdMisc          241      0.00%     40.97% # Class of committed instruction (Count)
system.cpu.commit.committedInstType_0::SimdMult            0      0.00%     40.97% # Class of committed instruction (Count)
system.cpu.commit.committedInstType_0::SimdMultAcc            0      0.00%     40.97% # Class of committed instruction (Count)
system.cpu.commit.committedInstType_0::SimdShift            0      0.00%     40.97% # Class of committed instruction (Count)
system.cpu.commit.committedInstType_0::SimdShiftAcc            0      0.00%     40.97% # Class of committed instruction (Count)
system.cpu.commit.committedInstType_0::SimdDiv            0      0.00%     40.97% # Class of committed instruction (Count)
system.cpu.commit.committedInstType_0::SimdSqrt            0      0.00%     40.97% # Class of committed instruction (Count)
system.cpu.commit.committedInstType_0::SimdFloatAdd            0      0.00%     40.97% # Class of committed instruction (Count)
system.cpu.commit.committedInstType_0::SimdFloatAlu            0      0.00%     40.97% # Class of committed instruction (Count)
system.cpu.commit.committedInstType_0::SimdFloatCmp            0      0.00%     40.97% # Class of committed instruction (Count)
system.cpu.commit.committedInstType_0::SimdFloatCvt            0      0.00%     40.97% # Class of committed instruction (Count)
system.cpu.commit.committedInstType_0::SimdFloatDiv            0      0.00%     40.97% # Class of committed instruction (Count)
system.cpu.commit.committedInstType_0::SimdFloatMisc            0      0.00%     40.97% # Class of committed instruction (Count)
system.cpu.commit.committedInstType_0::SimdFloatMult            0      0.00%     40.97% # Class of committed instruction (Count)
system.cpu.commit.committedInstType_0::SimdFloatMultAcc            0      0.00%     40.97% # Class of committed instruction (Count)
system.cpu.commit.committedInstType_0::SimdFloatSqrt            0      0.00%     40.97% # Class of committed instruction (Count)
system.cpu.commit.committedInstType_0::SimdReduceAdd            0      0.00%     40.97% # Class of committed instruction (Count)
system.cpu.commit.committedInstType_0::SimdReduceAlu            0      0.00%     40.97% # Class of committed instruction (Count)
system.cpu.commit.committedInstType_0::SimdReduceCmp            0      0.00%     40.97% # Class of committed instruction (Count)
system.cpu.commit.committedInstType_0::SimdFloatReduceAdd            0      0.00%     40.97% # Class of committed instruction (Count)
system.cpu.commit.committedInstType_0::SimdFloatReduceCmp            0      0.00%     40.97% # Class of committed instruction (Count)
system.cpu.commit.committedInstType_0::SimdAes            0      0.00%     40.97% # Class of committed instruction (Count)
system.cpu.commit.committedInstType_0::SimdAesMix            0      0.00%     40.97% # Class of committed instruction (Count)
system.cpu.commit.committedInstType_0::SimdSha1Hash            0      0.00%     40.97% # Class of committed instruction (Count)
system.cpu.commit.committedInstType_0::SimdSha1Hash2            0      0.00%     40.97% # Class of committed instruction (Count)
system.cpu.commit.committedInstType_0::SimdSha256Hash            0      0.00%     40.97% # Class of committed instruction (Count)
system.cpu.commit.committedInstType_0::SimdSha256Hash2            0      0.00%     40.97% # Class of committed instruction (Count)
system.cpu.commit.committedInstType_0::SimdShaSigma2            0      0.00%     40.97% # Class of committed instruction (Count)
system.cpu.commit.committedInstType_0::SimdShaSigma3            0      0.00%     40.97% # Class of committed instruction (Count)
system.cpu.commit.committedInstType_0::SimdPredAlu            0      0.00%     40.97% # Class of committed instruction (Count)
system.cpu.commit.committedInstType_0::MemRead     25317254     40.59%     81.57% # Class of committed instruction (Count)
system.cpu.commit.committedInstType_0::MemWrite     11496873     18.43%    100.00% # Class of committed instruction (Count)
system.cpu.commit.committedInstType_0::FloatMemRead           82      0.00%    100.00% # Class of committed instruction (Count)
system.cpu.commit.committedInstType_0::FloatMemWrite          164      0.00%    100.00% # Class of committed instruction (Count)
system.cpu.commit.committedInstType_0::IprAccess            0      0.00%    100.00% # Class of committed instruction (Count)
system.cpu.commit.committedInstType_0::InstPrefetch            0      0.00%    100.00% # Class of committed instruction (Count)
system.cpu.commit.committedInstType_0::total     62368874                       # Class of committed instruction (Count)
system.cpu.commit.commitEligibleSamples       3974428                       # number cycles where commit BW limit reached (Cycle)
system.cpu.dcache.demandHits::cpu.data      255642987                       # number of demand (read+write) hits (Count)
system.cpu.dcache.demandHits::total         255642987                       # number of demand (read+write) hits (Count)
system.cpu.dcache.overallHits::cpu.data     255642987                       # number of overall hits (Count)
system.cpu.dcache.overallHits::total        255642987                       # number of overall hits (Count)
system.cpu.dcache.demandMisses::cpu.data      6103248                       # number of demand (read+write) misses (Count)
system.cpu.dcache.demandMisses::total         6103248                       # number of demand (read+write) misses (Count)
system.cpu.dcache.overallMisses::cpu.data      6168784                       # number of overall misses (Count)
system.cpu.dcache.overallMisses::total        6168784                       # number of overall misses (Count)
system.cpu.dcache.demandMissLatency::cpu.data 485747169972                       # number of demand (read+write) miss ticks (Tick)
system.cpu.dcache.demandMissLatency::total 485747169972                       # number of demand (read+write) miss ticks (Tick)
system.cpu.dcache.overallMissLatency::cpu.data 485747169972                       # number of overall miss ticks (Tick)
system.cpu.dcache.overallMissLatency::total 485747169972                       # number of overall miss ticks (Tick)
system.cpu.dcache.demandAccesses::cpu.data    261746235                       # number of demand (read+write) accesses (Count)
system.cpu.dcache.demandAccesses::total     261746235                       # number of demand (read+write) accesses (Count)
system.cpu.dcache.overallAccesses::cpu.data    261811771                       # number of overall (read+write) accesses (Count)
system.cpu.dcache.overallAccesses::total    261811771                       # number of overall (read+write) accesses (Count)
system.cpu.dcache.demandMissRate::cpu.data     0.023317                       # miss rate for demand accesses (Ratio)
system.cpu.dcache.demandMissRate::total      0.023317                       # miss rate for demand accesses (Ratio)
system.cpu.dcache.overallMissRate::cpu.data     0.023562                       # miss rate for overall accesses (Ratio)
system.cpu.dcache.overallMissRate::total     0.023562                       # miss rate for overall accesses (Ratio)
system.cpu.dcache.demandAvgMissLatency::cpu.data 79588.306091                       # average overall miss latency in ticks ((Tick/Count))
system.cpu.dcache.demandAvgMissLatency::total 79588.306091                       # average overall miss latency in ticks ((Tick/Count))
system.cpu.dcache.overallAvgMissLatency::cpu.data 78742.774909                       # average overall miss latency ((Tick/Count))
system.cpu.dcache.overallAvgMissLatency::total 78742.774909                       # average overall miss latency ((Tick/Count))
system.cpu.dcache.blockedCycles::no_mshrs      2888756                       # number of cycles access was blocked (Cycle)
system.cpu.dcache.blockedCycles::no_targets            0                       # number of cycles access was blocked (Cycle)
system.cpu.dcache.blockedCauses::no_mshrs        59714                       # number of times access was blocked (Count)
system.cpu.dcache.blockedCauses::no_targets            0                       # number of times access was blocked (Count)
system.cpu.dcache.avgBlocked::no_mshrs      48.376528                       # average number of cycles each access was blocked ((Cycle/Count))
system.cpu.dcache.avgBlocked::no_targets          nan                       # average number of cycles each access was blocked ((Cycle/Count))
system.cpu.dcache.writebacks::writebacks      1124894                       # number of writebacks (Count)
system.cpu.dcache.writebacks::total           1124894                       # number of writebacks (Count)
system.cpu.dcache.demandMshrHits::cpu.data      4050478                       # number of demand (read+write) MSHR hits (Count)
system.cpu.dcache.demandMshrHits::total       4050478                       # number of demand (read+write) MSHR hits (Count)
system.cpu.dcache.overallMshrHits::cpu.data      4050478                       # number of overall MSHR hits (Count)
system.cpu.dcache.overallMshrHits::total      4050478                       # number of overall MSHR hits (Count)
system.cpu.dcache.demandMshrMisses::cpu.data      2052770                       # number of demand (read+write) MSHR misses (Count)
system.cpu.dcache.demandMshrMisses::total      2052770                       # number of demand (read+write) MSHR misses (Count)
system.cpu.dcache.overallMshrMisses::cpu.data      2118306                       # number of overall MSHR misses (Count)
system.cpu.dcache.overallMshrMisses::total      2118306                       # number of overall MSHR misses (Count)
system.cpu.dcache.demandMshrMissLatency::cpu.data 214036207974                       # number of demand (read+write) MSHR miss ticks (Tick)
system.cpu.dcache.demandMshrMissLatency::total 214036207974                       # number of demand (read+write) MSHR miss ticks (Tick)
system.cpu.dcache.overallMshrMissLatency::cpu.data 221227276974                       # number of overall MSHR miss ticks (Tick)
system.cpu.dcache.overallMshrMissLatency::total 221227276974                       # number of overall MSHR miss ticks (Tick)
system.cpu.dcache.demandMshrMissRate::cpu.data     0.007843                       # mshr miss ratio for demand accesses (Ratio)
system.cpu.dcache.demandMshrMissRate::total     0.007843                       # mshr miss ratio for demand accesses (Ratio)
system.cpu.dcache.overallMshrMissRate::cpu.data     0.008091                       # mshr miss ratio for overall accesses (Ratio)
system.cpu.dcache.overallMshrMissRate::total     0.008091                       # mshr miss ratio for overall accesses (Ratio)
system.cpu.dcache.demandAvgMshrMissLatency::cpu.data 104267.018699                       # average overall mshr miss latency ((Tick/Count))
system.cpu.dcache.demandAvgMshrMissLatency::total 104267.018699                       # average overall mshr miss latency ((Tick/Count))
system.cpu.dcache.overallAvgMshrMissLatency::cpu.data 104435.939366                       # average overall mshr miss latency ((Tick/Count))
system.cpu.dcache.overallAvgMshrMissLatency::total 104435.939366                       # average overall mshr miss latency ((Tick/Count))
system.cpu.dcache.replacements                2117794                       # number of replacements (Count)
system.cpu.dcache.LockedRMWReadReq.hits::cpu.data           24                       # number of LockedRMWReadReq hits (Count)
system.cpu.dcache.LockedRMWReadReq.hits::total           24                       # number of LockedRMWReadReq hits (Count)
system.cpu.dcache.LockedRMWReadReq.accesses::cpu.data           24                       # number of LockedRMWReadReq accesses(hits+misses) (Count)
system.cpu.dcache.LockedRMWReadReq.accesses::total           24                       # number of LockedRMWReadReq accesses(hits+misses) (Count)
system.cpu.dcache.LockedRMWReadReq.mshrMissLatency::cpu.data       216000                       # number of LockedRMWReadReq MSHR miss ticks (Tick)
system.cpu.dcache.LockedRMWReadReq.mshrMissLatency::total       216000                       # number of LockedRMWReadReq MSHR miss ticks (Tick)
system.cpu.dcache.LockedRMWReadReq.avgMshrMissLatency::cpu.data          inf                       # average LockedRMWReadReq mshr miss latency ((Tick/Count))
system.cpu.dcache.LockedRMWReadReq.avgMshrMissLatency::total          inf                       # average LockedRMWReadReq mshr miss latency ((Tick/Count))
system.cpu.dcache.LockedRMWWriteReq.hits::cpu.data           24                       # number of LockedRMWWriteReq hits (Count)
system.cpu.dcache.LockedRMWWriteReq.hits::total           24                       # number of LockedRMWWriteReq hits (Count)
system.cpu.dcache.LockedRMWWriteReq.accesses::cpu.data           24                       # number of LockedRMWWriteReq accesses(hits+misses) (Count)
system.cpu.dcache.LockedRMWWriteReq.accesses::total           24                       # number of LockedRMWWriteReq accesses(hits+misses) (Count)
system.cpu.dcache.ReadReq.hits::cpu.data    245238445                       # number of ReadReq hits (Count)
system.cpu.dcache.ReadReq.hits::total       245238445                       # number of ReadReq hits (Count)
system.cpu.dcache.ReadReq.misses::cpu.data      5010778                       # number of ReadReq misses (Count)
system.cpu.dcache.ReadReq.misses::total       5010778                       # number of ReadReq misses (Count)
system.cpu.dcache.ReadReq.missLatency::cpu.data 370046711000                       # number of ReadReq miss ticks (Tick)
system.cpu.dcache.ReadReq.missLatency::total 370046711000                       # number of ReadReq miss ticks (Tick)
system.cpu.dcache.ReadReq.accesses::cpu.data    250249223                       # number of ReadReq accesses(hits+misses) (Count)
system.cpu.dcache.ReadReq.accesses::total    250249223                       # number of ReadReq accesses(hits+misses) (Count)
system.cpu.dcache.ReadReq.missRate::cpu.data     0.020023                       # miss rate for ReadReq accesses (Ratio)
system.cpu.dcache.ReadReq.missRate::total     0.020023                       # miss rate for ReadReq accesses (Ratio)
system.cpu.dcache.ReadReq.avgMissLatency::cpu.data 73850.150815                       # average ReadReq miss latency ((Tick/Count))
system.cpu.dcache.ReadReq.avgMissLatency::total 73850.150815                       # average ReadReq miss latency ((Tick/Count))
system.cpu.dcache.ReadReq.mshrHits::cpu.data      4050475                       # number of ReadReq MSHR hits (Count)
system.cpu.dcache.ReadReq.mshrHits::total      4050475                       # number of ReadReq MSHR hits (Count)
system.cpu.dcache.ReadReq.mshrMisses::cpu.data       960303                       # number of ReadReq MSHR misses (Count)
system.cpu.dcache.ReadReq.mshrMisses::total       960303                       # number of ReadReq MSHR misses (Count)
system.cpu.dcache.ReadReq.mshrMissLatency::cpu.data 100520876000                       # number of ReadReq MSHR miss ticks (Tick)
system.cpu.dcache.ReadReq.mshrMissLatency::total 100520876000                       # number of ReadReq MSHR miss ticks (Tick)
system.cpu.dcache.ReadReq.mshrMissRate::cpu.data     0.003837                       # mshr miss rate for ReadReq accesses (Ratio)
system.cpu.dcache.ReadReq.mshrMissRate::total     0.003837                       # mshr miss rate for ReadReq accesses (Ratio)
system.cpu.dcache.ReadReq.avgMshrMissLatency::cpu.data 104676.207405                       # average ReadReq mshr miss latency ((Tick/Count))
system.cpu.dcache.ReadReq.avgMshrMissLatency::total 104676.207405                       # average ReadReq mshr miss latency ((Tick/Count))
system.cpu.dcache.SoftPFReq.misses::cpu.data        65536                       # number of SoftPFReq misses (Count)
system.cpu.dcache.SoftPFReq.misses::total        65536                       # number of SoftPFReq misses (Count)
system.cpu.dcache.SoftPFReq.accesses::cpu.data        65536                       # number of SoftPFReq accesses(hits+misses) (Count)
system.cpu.dcache.SoftPFReq.accesses::total        65536                       # number of SoftPFReq accesses(hits+misses) (Count)
system.cpu.dcache.SoftPFReq.missRate::cpu.data            1                       # miss rate for SoftPFReq accesses (Ratio)
system.cpu.dcache.SoftPFReq.missRate::total            1                       # miss rate for SoftPFReq accesses (Ratio)
system.cpu.dcache.SoftPFReq.mshrMisses::cpu.data        65536                       # number of SoftPFReq MSHR misses (Count)
system.cpu.dcache.SoftPFReq.mshrMisses::total        65536                       # number of SoftPFReq MSHR misses (Count)
system.cpu.dcache.SoftPFReq.mshrMissLatency::cpu.data   7191069000                       # number of SoftPFReq MSHR miss ticks (Tick)
system.cpu.dcache.SoftPFReq.mshrMissLatency::total   7191069000                       # number of SoftPFReq MSHR miss ticks (Tick)
system.cpu.dcache.SoftPFReq.mshrMissRate::cpu.data            1                       # mshr miss rate for SoftPFReq accesses (Ratio)
system.cpu.dcache.SoftPFReq.mshrMissRate::total            1                       # mshr miss rate for SoftPFReq accesses (Ratio)
system.cpu.dcache.SoftPFReq.avgMshrMissLatency::cpu.data 109727.005005                       # average SoftPFReq mshr miss latency ((Tick/Count))
system.cpu.dcache.SoftPFReq.avgMshrMissLatency::total 109727.005005                       # average SoftPFReq mshr miss latency ((Tick/Count))
system.cpu.dcache.WriteReq.hits::cpu.data     10404542                       # number of WriteReq hits (Count)
system.cpu.dcache.WriteReq.hits::total       10404542                       # number of WriteReq hits (Count)
system.cpu.dcache.WriteReq.misses::cpu.data      1092470                       # number of WriteReq misses (Count)
system.cpu.dcache.WriteReq.misses::total      1092470                       # number of WriteReq misses (Count)
system.cpu.dcache.WriteReq.missLatency::cpu.data 115700458972                       # number of WriteReq miss ticks (Tick)
system.cpu.dcache.WriteReq.missLatency::total 115700458972                       # number of WriteReq miss ticks (Tick)
system.cpu.dcache.WriteReq.accesses::cpu.data     11497012                       # number of WriteReq accesses(hits+misses) (Count)
system.cpu.dcache.WriteReq.accesses::total     11497012                       # number of WriteReq accesses(hits+misses) (Count)
system.cpu.dcache.WriteReq.missRate::cpu.data     0.095022                       # miss rate for WriteReq accesses (Ratio)
system.cpu.dcache.WriteReq.missRate::total     0.095022                       # miss rate for WriteReq accesses (Ratio)
system.cpu.dcache.WriteReq.avgMissLatency::cpu.data 105907.218479                       # average WriteReq miss latency ((Tick/Count))
system.cpu.dcache.WriteReq.avgMissLatency::total 105907.218479                       # average WriteReq miss latency ((Tick/Count))
system.cpu.dcache.WriteReq.mshrHits::cpu.data            3                       # number of WriteReq MSHR hits (Count)
system.cpu.dcache.WriteReq.mshrHits::total            3                       # number of WriteReq MSHR hits (Count)
system.cpu.dcache.WriteReq.mshrMisses::cpu.data      1092467                       # number of WriteReq MSHR misses (Count)
system.cpu.dcache.WriteReq.mshrMisses::total      1092467                       # number of WriteReq MSHR misses (Count)
system.cpu.dcache.WriteReq.mshrMissLatency::cpu.data 113515331974                       # number of WriteReq MSHR miss ticks (Tick)
system.cpu.dcache.WriteReq.mshrMissLatency::total 113515331974                       # number of WriteReq MSHR miss ticks (Tick)
system.cpu.dcache.WriteReq.mshrMissRate::cpu.data     0.095022                       # mshr miss rate for WriteReq accesses (Ratio)
system.cpu.dcache.WriteReq.mshrMissRate::total     0.095022                       # mshr miss rate for WriteReq accesses (Ratio)
system.cpu.dcache.WriteReq.avgMshrMissLatency::cpu.data 103907.332646                       # average WriteReq mshr miss latency ((Tick/Count))
system.cpu.dcache.WriteReq.avgMshrMissLatency::total 103907.332646                       # average WriteReq mshr miss latency ((Tick/Count))
system.cpu.dcache.power_state.pwrStateResidencyTicks::UNDEFINED 404595431000                       # Cumulative time (in ticks) in various power states (Tick)
system.cpu.dcache.tags.tagsInUse           493.776200                       # Average ticks per tags in use ((Tick/Count))
system.cpu.dcache.tags.totalRefs            257761341                       # Total number of references to valid blocks. (Count)
system.cpu.dcache.tags.sampledRefs            2118306                       # Sample count of references to valid blocks. (Count)
system.cpu.dcache.tags.avgRefs             121.682770                       # Average number of references to valid blocks. ((Count/Count))
system.cpu.dcache.tags.warmupTick              240000                       # The tick when the warmup percentage was hit. (Tick)
system.cpu.dcache.tags.occupancies::cpu.data   493.776200                       # Average occupied blocks per tick, per requestor ((Count/Tick))
system.cpu.dcache.tags.avgOccs::cpu.data     0.964407                       # Average percentage of cache occupancy ((Ratio/Tick))
system.cpu.dcache.tags.avgOccs::total        0.964407                       # Average percentage of cache occupancy ((Ratio/Tick))
system.cpu.dcache.tags.occupanciesTaskId::1024          512                       # Occupied blocks per task id (Count)
system.cpu.dcache.tags.ageTaskId_1024::0            4                       # Occupied blocks per task id, per block age (Count)
system.cpu.dcache.tags.ageTaskId_1024::1           34                       # Occupied blocks per task id, per block age (Count)
system.cpu.dcache.tags.ageTaskId_1024::2          346                       # Occupied blocks per task id, per block age (Count)
system.cpu.dcache.tags.ageTaskId_1024::3            9                       # Occupied blocks per task id, per block age (Count)
system.cpu.dcache.tags.ageTaskId_1024::4          119                       # Occupied blocks per task id, per block age (Count)
system.cpu.dcache.tags.ratioOccsTaskId::1024            1                       # Ratio of occupied blocks and all blocks, per task id (Ratio)
system.cpu.dcache.tags.tagAccesses         1049365582                       # Number of tag accesses (Count)
system.cpu.dcache.tags.dataAccesses        1049365582                       # Number of data accesses (Count)
system.cpu.dcache.tags.power_state.pwrStateResidencyTicks::UNDEFINED 404595431000                       # Cumulative time (in ticks) in various power states (Tick)
system.cpu.decode.idleCycles                 46869727                       # Number of cycles decode is idle (Cycle)
system.cpu.decode.blockedCycles             216639052                       # Number of cycles decode is blocked (Cycle)
system.cpu.decode.runCycles                 124058749                       # Number of cycles decode is running (Cycle)
system.cpu.decode.unblockCycles               9769256                       # Number of cycles decode is unblocking (Cycle)
system.cpu.decode.squashCycles                7232164                       # Number of cycles decode is squashing (Cycle)
system.cpu.decode.branchResolved             17110067                       # Number of times decode resolved a branch (Count)
system.cpu.decode.branchMispred                   636                       # Number of times decode detected a branch misprediction (Count)
system.cpu.decode.decodedInsts              941379621                       # Number of instructions handled by decode (Count)
system.cpu.decode.squashedInsts                  2864                       # Number of squashed instructions handled by decode (Count)
system.cpu.fetch.icacheStallCycles           91819411                       # Number of cycles fetch is stalled on an Icache miss (Cycle)
system.cpu.fetch.insts                      753383346                       # Number of instructions fetch has processed (Count)
system.cpu.fetch.branches                    22498506                       # Number of branches that fetch encountered (Count)
system.cpu.fetch.predictedBranches           21781891                       # Number of branches that fetch has predicted taken (Count)
system.cpu.fetch.cycles                     305516636                       # Number of cycles fetch has run and was not squashing or blocked (Cycle)
system.cpu.fetch.squashCycles                14465526                       # Number of cycles fetch has spent squashing (Cycle)
system.cpu.fetch.miscStallCycles                   18                       # Number of cycles fetch has spent waiting on interrupts, or bad addresses, or out of MSHRs (Cycle)
system.cpu.fetch.pendingTrapStallCycles            76                       # Number of stall cycles due to pending traps (Cycle)
system.cpu.fetch.icacheWaitRetryStallCycles           44                       # Number of stall cycles due to full MSHR (Cycle)
system.cpu.fetch.cacheLines                  86508066                       # Number of cache lines fetched (Count)
system.cpu.fetch.icacheSquashes               1858427                       # Number of outstanding Icache misses that were squashed (Count)
system.cpu.fetch.nisnDist::samples          404568948                       # Number of instructions fetched each cycle (Total) (Count)
system.cpu.fetch.nisnDist::mean              2.708413                       # Number of instructions fetched each cycle (Total) (Count)
system.cpu.fetch.nisnDist::stdev             3.377406                       # Number of instructions fetched each cycle (Total) (Count)
system.cpu.fetch.nisnDist::underflows               0      0.00%      0.00% # Number of instructions fetched each cycle (Total) (Count)
system.cpu.fetch.nisnDist::0                222240909     54.93%     54.93% # Number of instructions fetched each cycle (Total) (Count)
system.cpu.fetch.nisnDist::1                  5373221      1.33%     56.26% # Number of instructions fetched each cycle (Total) (Count)
system.cpu.fetch.nisnDist::2                  2190563      0.54%     56.80% # Number of instructions fetched each cycle (Total) (Count)
system.cpu.fetch.nisnDist::3                 39786849      9.83%     66.64% # Number of instructions fetched each cycle (Total) (Count)
system.cpu.fetch.nisnDist::4                 18831801      4.65%     71.29% # Number of instructions fetched each cycle (Total) (Count)
system.cpu.fetch.nisnDist::5                  3163186      0.78%     72.07% # Number of instructions fetched each cycle (Total) (Count)
system.cpu.fetch.nisnDist::6                 12382946      3.06%     75.13% # Number of instructions fetched each cycle (Total) (Count)
system.cpu.fetch.nisnDist::7                  3611863      0.89%     76.03% # Number of instructions fetched each cycle (Total) (Count)
system.cpu.fetch.nisnDist::8                 96987610     23.97%    100.00% # Number of instructions fetched each cycle (Total) (Count)
system.cpu.fetch.nisnDist::overflows                0      0.00%    100.00% # Number of instructions fetched each cycle (Total) (Count)
system.cpu.fetch.nisnDist::min_value                0                       # Number of instructions fetched each cycle (Total) (Count)
system.cpu.fetch.nisnDist::max_value                8                       # Number of instructions fetched each cycle (Total) (Count)
system.cpu.fetch.nisnDist::total            404568948                       # Number of instructions fetched each cycle (Total) (Count)
system.cpu.fetch.branchRate                  0.055607                       # Number of branch fetches per cycle (Ratio)
system.cpu.fetch.rate                        1.862066                       # Number of inst fetches per cycle ((Count/Cycle))
system.cpu.icache.demandHits::cpu.inst       86507135                       # number of demand (read+write) hits (Count)
system.cpu.icache.demandHits::total          86507135                       # number of demand (read+write) hits (Count)
system.cpu.icache.overallHits::cpu.inst      86507135                       # number of overall hits (Count)
system.cpu.icache.overallHits::total         86507135                       # number of overall hits (Count)
system.cpu.icache.demandMisses::cpu.inst          931                       # number of demand (read+write) misses (Count)
system.cpu.icache.demandMisses::total             931                       # number of demand (read+write) misses (Count)
system.cpu.icache.overallMisses::cpu.inst          931                       # number of overall misses (Count)
system.cpu.icache.overallMisses::total            931                       # number of overall misses (Count)
system.cpu.icache.demandMissLatency::cpu.inst     88574999                       # number of demand (read+write) miss ticks (Tick)
system.cpu.icache.demandMissLatency::total     88574999                       # number of demand (read+write) miss ticks (Tick)
system.cpu.icache.overallMissLatency::cpu.inst     88574999                       # number of overall miss ticks (Tick)
system.cpu.icache.overallMissLatency::total     88574999                       # number of overall miss ticks (Tick)
system.cpu.icache.demandAccesses::cpu.inst     86508066                       # number of demand (read+write) accesses (Count)
system.cpu.icache.demandAccesses::total      86508066                       # number of demand (read+write) accesses (Count)
system.cpu.icache.overallAccesses::cpu.inst     86508066                       # number of overall (read+write) accesses (Count)
system.cpu.icache.overallAccesses::total     86508066                       # number of overall (read+write) accesses (Count)
system.cpu.icache.demandMissRate::cpu.inst     0.000011                       # miss rate for demand accesses (Ratio)
system.cpu.icache.demandMissRate::total      0.000011                       # miss rate for demand accesses (Ratio)
system.cpu.icache.overallMissRate::cpu.inst     0.000011                       # miss rate for overall accesses (Ratio)
system.cpu.icache.overallMissRate::total     0.000011                       # miss rate for overall accesses (Ratio)
system.cpu.icache.demandAvgMissLatency::cpu.inst 95139.633727                       # average overall miss latency in ticks ((Tick/Count))
system.cpu.icache.demandAvgMissLatency::total 95139.633727                       # average overall miss latency in ticks ((Tick/Count))
system.cpu.icache.overallAvgMissLatency::cpu.inst 95139.633727                       # average overall miss latency ((Tick/Count))
system.cpu.icache.overallAvgMissLatency::total 95139.633727                       # average overall miss latency ((Tick/Count))
system.cpu.icache.blockedCycles::no_mshrs          266                       # number of cycles access was blocked (Cycle)
system.cpu.icache.blockedCycles::no_targets            0                       # number of cycles access was blocked (Cycle)
system.cpu.icache.blockedCauses::no_mshrs            7                       # number of times access was blocked (Count)
system.cpu.icache.blockedCauses::no_targets            0                       # number of times access was blocked (Count)
system.cpu.icache.avgBlocked::no_mshrs             38                       # average number of cycles each access was blocked ((Cycle/Count))
system.cpu.icache.avgBlocked::no_targets          nan                       # average number of cycles each access was blocked ((Cycle/Count))
system.cpu.icache.demandMshrHits::cpu.inst          224                       # number of demand (read+write) MSHR hits (Count)
system.cpu.icache.demandMshrHits::total           224                       # number of demand (read+write) MSHR hits (Count)
system.cpu.icache.overallMshrHits::cpu.inst          224                       # number of overall MSHR hits (Count)
system.cpu.icache.overallMshrHits::total          224                       # number of overall MSHR hits (Count)
system.cpu.icache.demandMshrMisses::cpu.inst          707                       # number of demand (read+write) MSHR misses (Count)
system.cpu.icache.demandMshrMisses::total          707                       # number of demand (read+write) MSHR misses (Count)
system.cpu.icache.overallMshrMisses::cpu.inst          707                       # number of overall MSHR misses (Count)
system.cpu.icache.overallMshrMisses::total          707                       # number of overall MSHR misses (Count)
system.cpu.icache.demandMshrMissLatency::cpu.inst     70257999                       # number of demand (read+write) MSHR miss ticks (Tick)
system.cpu.icache.demandMshrMissLatency::total     70257999                       # number of demand (read+write) MSHR miss ticks (Tick)
system.cpu.icache.overallMshrMissLatency::cpu.inst     70257999                       # number of overall MSHR miss ticks (Tick)
system.cpu.icache.overallMshrMissLatency::total     70257999                       # number of overall MSHR miss ticks (Tick)
system.cpu.icache.demandMshrMissRate::cpu.inst     0.000008                       # mshr miss ratio for demand accesses (Ratio)
system.cpu.icache.demandMshrMissRate::total     0.000008                       # mshr miss ratio for demand accesses (Ratio)
system.cpu.icache.overallMshrMissRate::cpu.inst     0.000008                       # mshr miss ratio for overall accesses (Ratio)
system.cpu.icache.overallMshrMissRate::total     0.000008                       # mshr miss ratio for overall accesses (Ratio)
system.cpu.icache.demandAvgMshrMissLatency::cpu.inst 99374.821782                       # average overall mshr miss latency ((Tick/Count))
system.cpu.icache.demandAvgMshrMissLatency::total 99374.821782                       # average overall mshr miss latency ((Tick/Count))
system.cpu.icache.overallAvgMshrMissLatency::cpu.inst 99374.821782                       # average overall mshr miss latency ((Tick/Count))
system.cpu.icache.overallAvgMshrMissLatency::total 99374.821782                       # average overall mshr miss latency ((Tick/Count))
system.cpu.icache.replacements                    291                       # number of replacements (Count)
system.cpu.icache.ReadReq.hits::cpu.inst     86507135                       # number of ReadReq hits (Count)
system.cpu.icache.ReadReq.hits::total        86507135                       # number of ReadReq hits (Count)
system.cpu.icache.ReadReq.misses::cpu.inst          931                       # number of ReadReq misses (Count)
system.cpu.icache.ReadReq.misses::total           931                       # number of ReadReq misses (Count)
system.cpu.icache.ReadReq.missLatency::cpu.inst     88574999                       # number of ReadReq miss ticks (Tick)
system.cpu.icache.ReadReq.missLatency::total     88574999                       # number of ReadReq miss ticks (Tick)
system.cpu.icache.ReadReq.accesses::cpu.inst     86508066                       # number of ReadReq accesses(hits+misses) (Count)
system.cpu.icache.ReadReq.accesses::total     86508066                       # number of ReadReq accesses(hits+misses) (Count)
system.cpu.icache.ReadReq.missRate::cpu.inst     0.000011                       # miss rate for ReadReq accesses (Ratio)
system.cpu.icache.ReadReq.missRate::total     0.000011                       # miss rate for ReadReq accesses (Ratio)
system.cpu.icache.ReadReq.avgMissLatency::cpu.inst 95139.633727                       # average ReadReq miss latency ((Tick/Count))
system.cpu.icache.ReadReq.avgMissLatency::total 95139.633727                       # average ReadReq miss latency ((Tick/Count))
system.cpu.icache.ReadReq.mshrHits::cpu.inst          224                       # number of ReadReq MSHR hits (Count)
system.cpu.icache.ReadReq.mshrHits::total          224                       # number of ReadReq MSHR hits (Count)
system.cpu.icache.ReadReq.mshrMisses::cpu.inst          707                       # number of ReadReq MSHR misses (Count)
system.cpu.icache.ReadReq.mshrMisses::total          707                       # number of ReadReq MSHR misses (Count)
system.cpu.icache.ReadReq.mshrMissLatency::cpu.inst     70257999                       # number of ReadReq MSHR miss ticks (Tick)
system.cpu.icache.ReadReq.mshrMissLatency::total     70257999                       # number of ReadReq MSHR miss ticks (Tick)
system.cpu.icache.ReadReq.mshrMissRate::cpu.inst     0.000008                       # mshr miss rate for ReadReq accesses (Ratio)
system.cpu.icache.ReadReq.mshrMissRate::total     0.000008                       # mshr miss rate for ReadReq accesses (Ratio)
system.cpu.icache.ReadReq.avgMshrMissLatency::cpu.inst 99374.821782                       # average ReadReq mshr miss latency ((Tick/Count))
system.cpu.icache.ReadReq.avgMshrMissLatency::total 99374.821782                       # average ReadReq mshr miss latency ((Tick/Count))
system.cpu.icache.power_state.pwrStateResidencyTicks::UNDEFINED 404595431000                       # Cumulative time (in ticks) in various power states (Tick)
system.cpu.icache.tags.tagsInUse           354.937274                       # Average ticks per tags in use ((Tick/Count))
system.cpu.icache.tags.totalRefs             86507842                       # Total number of references to valid blocks. (Count)
system.cpu.icache.tags.sampledRefs                707                       # Sample count of references to valid blocks. (Count)
system.cpu.icache.tags.avgRefs           122359.041018                       # Average number of references to valid blocks. ((Count/Count))
system.cpu.icache.tags.warmupTick              107000                       # The tick when the warmup percentage was hit. (Tick)
system.cpu.icache.tags.occupancies::cpu.inst   354.937274                       # Average occupied blocks per tick, per requestor ((Count/Tick))
system.cpu.icache.tags.avgOccs::cpu.inst     0.693237                       # Average percentage of cache occupancy ((Ratio/Tick))
system.cpu.icache.tags.avgOccs::total        0.693237                       # Average percentage of cache occupancy ((Ratio/Tick))
system.cpu.icache.tags.occupanciesTaskId::1024          416                       # Occupied blocks per task id (Count)
system.cpu.icache.tags.ageTaskId_1024::4          416                       # Occupied blocks per task id, per block age (Count)
system.cpu.icache.tags.ratioOccsTaskId::1024     0.812500                       # Ratio of occupied blocks and all blocks, per task id (Ratio)
system.cpu.icache.tags.tagAccesses          173016839                       # Number of tag accesses (Count)
system.cpu.icache.tags.dataAccesses         173016839                       # Number of data accesses (Count)
system.cpu.icache.tags.power_state.pwrStateResidencyTicks::UNDEFINED 404595431000                       # Cumulative time (in ticks) in various power states (Tick)
system.cpu.iew.idleCycles                           0                       # Number of cycles IEW is idle (Cycle)
system.cpu.iew.squashCycles                   7232164                       # Number of cycles IEW is squashing (Cycle)
system.cpu.iew.blockCycles                   62173925                       # Number of cycles IEW is blocking (Cycle)
system.cpu.iew.unblockCycles                  8860726                       # Number of cycles IEW is unblocking (Cycle)
system.cpu.iew.dispatchedInsts              872402970                       # Number of instructions dispatched to IQ (Count)
system.cpu.iew.dispSquashedInsts                  473                       # Number of squashed instructions skipped by dispatch (Count)
system.cpu.iew.dispLoadInsts                255492842                       # Number of dispatched load instructions (Count)
system.cpu.iew.dispStoreInsts               239498980                       # Number of dispatched store instructions (Count)
system.cpu.iew.dispNonSpecInsts              29326104                       # Number of dispatched non-speculative instructions (Count)
system.cpu.iew.iqFullEvents                        93                       # Number of times the IQ has become full, causing a stall (Count)
system.cpu.iew.lsqFullEvents                  9749140                       # Number of times the LSQ has become full, causing a stall (Count)
system.cpu.iew.memOrderViolationEvents           1067                       # Number of memory order violations (Count)
system.cpu.iew.predictedTakenIncorrect          26835                       # Number of branches that were predicted taken incorrectly (Count)
system.cpu.iew.predictedNotTakenIncorrect        46144                       # Number of branches that were predicted not taken incorrectly (Count)
system.cpu.iew.branchMispredicts                72979                       # Number of branch mispredicts detected at execute (Count)
system.cpu.iew.instsToCommit                832932369                       # Cumulative count of insts sent to commit (Count)
system.cpu.iew.writebackCount               591550208                       # Cumulative count of insts written-back (Count)
system.cpu.iew.producerInst                 277427271                       # Number of instructions producing a value (Count)
system.cpu.iew.consumerInst                 308985364                       # Number of instructions consuming a value (Count)
system.cpu.iew.wbRate                        1.462078                       # Insts written-back per cycle ((Count/Cycle))
system.cpu.iew.wbFanout                      0.897865                       # Average fanout of values written-back ((Count/Count))
system.cpu.interrupts.clk_domain.clock          16000                       # Clock period in ticks (Tick)
system.cpu.lsq0.forwLoads                     4895283                       # Number of loads that had data forwarded from stores (Count)
system.cpu.lsq0.squashedLoads               230175506                       # Number of loads squashed (Count)
system.cpu.lsq0.ignoredResponses                 5051                       # Number of memory responses ignored because the instruction is squashed (Count)
system.cpu.lsq0.memOrderViolation                1067                       # Number of memory ordering violations (Count)
system.cpu.lsq0.squashedStores              228001943                       # Number of stores squashed (Count)
system.cpu.lsq0.rescheduledLoads                    7                       # Number of loads that were rescheduled (Count)
system.cpu.lsq0.blockedByCache                  47040                       # Number of times an access to memory failed due to the cache being blocked (Count)
system.cpu.lsq0.loadToUse::samples           25251800                       # Distribution of cycle latency between the first time a load is issued and its completion (Unspecified)
system.cpu.lsq0.loadToUse::mean              3.742081                       # Distribution of cycle latency between the first time a load is issued and its completion (Unspecified)
system.cpu.lsq0.loadToUse::stdev             7.329858                       # Distribution of cycle latency between the first time a load is issued and its completion (Unspecified)
system.cpu.lsq0.loadToUse::0-9               25111957     99.45%     99.45% # Distribution of cycle latency between the first time a load is issued and its completion (Unspecified)
system.cpu.lsq0.loadToUse::10-19                 5303      0.02%     99.47% # Distribution of cycle latency between the first time a load is issued and its completion (Unspecified)
system.cpu.lsq0.loadToUse::20-29                 5589      0.02%     99.49% # Distribution of cycle latency between the first time a load is issued and its completion (Unspecified)
system.cpu.lsq0.loadToUse::30-39                 6347      0.03%     99.51% # Distribution of cycle latency between the first time a load is issued and its completion (Unspecified)
system.cpu.lsq0.loadToUse::40-49                 5309      0.02%     99.54% # Distribution of cycle latency between the first time a load is issued and its completion (Unspecified)
system.cpu.lsq0.loadToUse::50-59                 4673      0.02%     99.55% # Distribution of cycle latency between the first time a load is issued and its completion (Unspecified)
system.cpu.lsq0.loadToUse::60-69                 3080      0.01%     99.57% # Distribution of cycle latency between the first time a load is issued and its completion (Unspecified)
system.cpu.lsq0.loadToUse::70-79                 2828      0.01%     99.58% # Distribution of cycle latency between the first time a load is issued and its completion (Unspecified)
system.cpu.lsq0.loadToUse::80-89                 9941      0.04%     99.62% # Distribution of cycle latency between the first time a load is issued and its completion (Unspecified)
system.cpu.lsq0.loadToUse::90-99                65132      0.26%     99.87% # Distribution of cycle latency between the first time a load is issued and its completion (Unspecified)
system.cpu.lsq0.loadToUse::100-109               8621      0.03%     99.91% # Distribution of cycle latency between the first time a load is issued and its completion (Unspecified)
system.cpu.lsq0.loadToUse::110-119               9253      0.04%     99.95% # Distribution of cycle latency between the first time a load is issued and its completion (Unspecified)
system.cpu.lsq0.loadToUse::120-129               5555      0.02%     99.97% # Distribution of cycle latency between the first time a load is issued and its completion (Unspecified)
system.cpu.lsq0.loadToUse::130-139                495      0.00%     99.97% # Distribution of cycle latency between the first time a load is issued and its completion (Unspecified)
[...]
system.mem_ctrl.dram.bytesWritten::total     71674944                       # Number of bytes written to this memory (Byte)
system.mem_ctrl.dram.numReads::cpu.inst           670                       # Number of read requests responded to by this memory (Count)
system.mem_ctrl.dram.numReads::cpu.data       2117281                       # Number of read requests responded to by this memory (Count)
system.mem_ctrl.dram.numReads::total          2117951                       # Number of read requests responded to by this memory (Count)
system.mem_ctrl.dram.numWrites::writebacks      1119921                       # Number of write requests responded to by this memory (Count)
system.mem_ctrl.dram.numWrites::total         1119921                       # Number of write requests responded to by this memory (Count)
system.mem_ctrl.dram.bwRead::cpu.inst          105982                       # Total read bandwidth from this memory ((Byte/Second))
system.mem_ctrl.dram.bwRead::cpu.data       334917237                       # Total read bandwidth from this memory ((Byte/Second))
system.mem_ctrl.dram.bwRead::total          335023220                       # Total read bandwidth from this memory ((Byte/Second))
system.mem_ctrl.dram.bwInstRead::cpu.inst       105982                       # Instruction read bandwidth from this memory ((Byte/Second))
system.mem_ctrl.dram.bwInstRead::total         105982                       # Instruction read bandwidth from this memory ((Byte/Second))
system.mem_ctrl.dram.bwWrite::writebacks    177152134                       # Write bandwidth from this memory ((Byte/Second))
system.mem_ctrl.dram.bwWrite::total         177152134                       # Write bandwidth from this memory ((Byte/Second))
system.mem_ctrl.dram.bwTotal::writebacks    177152134                       # Total bandwidth to/from this memory ((Byte/Second))
system.mem_ctrl.dram.bwTotal::cpu.inst         105982                       # Total bandwidth to/from this memory ((Byte/Second))
system.mem_ctrl.dram.bwTotal::cpu.data      334917237                       # Total bandwidth to/from this memory ((Byte/Second))
system.mem_ctrl.dram.bwTotal::total         512175354                       # Total bandwidth to/from this memory ((Byte/Second))
system.mem_ctrl.dram.readBursts               2117951                       # Number of DRAM read bursts (Count)
system.mem_ctrl.dram.writeBursts              1119902                       # Number of DRAM write bursts (Count)
system.mem_ctrl.dram.perBankRdBursts::0        132419                       # Per bank write bursts (Count)
system.mem_ctrl.dram.perBankRdBursts::1        132243                       # Per bank write bursts (Count)
system.mem_ctrl.dram.perBankRdBursts::2        132255                       # Per bank write bursts (Count)
system.mem_ctrl.dram.perBankRdBursts::3        132231                       # Per bank write bursts (Count)
system.mem_ctrl.dram.perBankRdBursts::4        132734                       # Per bank write bursts (Count)
system.mem_ctrl.dram.perBankRdBursts::5        132762                       # Per bank write bursts (Count)
system.mem_ctrl.dram.perBankRdBursts::6        132639                       # Per bank write bursts (Count)
system.mem_ctrl.dram.perBankRdBursts::7        132577                       # Per bank write bursts (Count)
system.mem_ctrl.dram.perBankRdBursts::8        132547                       # Per bank write bursts (Count)
system.mem_ctrl.dram.perBankRdBursts::9        132409                       # Per bank write bursts (Count)
system.mem_ctrl.dram.perBankRdBursts::10       132295                       # Per bank write bursts (Count)
system.mem_ctrl.dram.perBankRdBursts::11       132158                       # Per bank write bursts (Count)
system.mem_ctrl.dram.perBankRdBursts::12       132135                       # Per bank write bursts (Count)
system.mem_ctrl.dram.perBankRdBursts::13       132102                       # Per bank write bursts (Count)
system.mem_ctrl.dram.perBankRdBursts::14       132223                       # Per bank write bursts (Count)
system.mem_ctrl.dram.perBankRdBursts::15       132222                       # Per bank write bursts (Count)
system.mem_ctrl.dram.perBankWrBursts::0         70101                       # Per bank write bursts (Count)
system.mem_ctrl.dram.perBankWrBursts::1         70020                       # Per bank write bursts (Count)
system.mem_ctrl.dram.perBankWrBursts::2         70048                       # Per bank write bursts (Count)
system.mem_ctrl.dram.perBankWrBursts::3         70041                       # Per bank write bursts (Count)
system.mem_ctrl.dram.perBankWrBursts::4         69890                       # Per bank write bursts (Count)
system.mem_ctrl.dram.perBankWrBursts::5         70016                       # Per bank write bursts (Count)
system.mem_ctrl.dram.perBankWrBursts::6         70016                       # Per bank write bursts (Count)
system.mem_ctrl.dram.perBankWrBursts::7         70014                       # Per bank write bursts (Count)
system.mem_ctrl.dram.perBankWrBursts::8         69994                       # Per bank write bursts (Count)
system.mem_ctrl.dram.perBankWrBursts::9         69951                       # Per bank write bursts (Count)
system.mem_ctrl.dram.perBankWrBursts::10        69915                       # Per bank write bursts (Count)
system.mem_ctrl.dram.perBankWrBursts::11        69896                       # Per bank write bursts (Count)
system.mem_ctrl.dram.perBankWrBursts::12        69888                       # Per bank write bursts (Count)
system.mem_ctrl.dram.perBankWrBursts::13        70003                       # Per bank write bursts (Count)
system.mem_ctrl.dram.perBankWrBursts::14        70076                       # Per bank write bursts (Count)
system.mem_ctrl.dram.perBankWrBursts::15        70033                       # Per bank write bursts (Count)
system.mem_ctrl.dram.totQLat              24181618500                       # Total ticks spent queuing (Tick)
system.mem_ctrl.dram.totBusLat            10589755000                       # Total ticks spent in databus transfers (Tick)
system.mem_ctrl.dram.totMemAccLat         63893199750                       # Total ticks spent from burst creation until serviced by the DRAM (Tick)
system.mem_ctrl.dram.avgQLat                 11417.46                       # Average queueing delay per DRAM burst ((Tick/Count))
system.mem_ctrl.dram.avgBusLat                5000.00                       # Average bus latency per DRAM burst ((Tick/Count))
system.mem_ctrl.dram.avgMemAccLat            30167.46                       # Average memory access latency per DRAM burst ((Tick/Count))
system.mem_ctrl.dram.readRowHits              1869056                       # Number of row buffer hits during reads (Count)
system.mem_ctrl.dram.writeRowHits              968435                       # Number of row buffer hits during writes (Count)
system.mem_ctrl.dram.readRowHitRate             88.25                       # Row buffer hit rate for reads (Ratio)
system.mem_ctrl.dram.writeRowHitRate            86.47                       # Row buffer hit rate for writes (Ratio)
system.mem_ctrl.dram.bytesPerActivate::samples       400361                       # Bytes accessed per row activation (Byte)
system.mem_ctrl.dram.bytesPerActivate::mean   517.589036                       # Bytes accessed per row activation (Byte)
system.mem_ctrl.dram.bytesPerActivate::gmean   364.744711                       # Bytes accessed per row activation (Byte)
system.mem_ctrl.dram.bytesPerActivate::stdev   367.724071                       # Bytes accessed per row activation (Byte)
system.mem_ctrl.dram.bytesPerActivate::0-127        33884      8.46%      8.46% # Bytes accessed per row activation (Byte)
system.mem_ctrl.dram.bytesPerActivate::128-255       115220     28.78%     37.24% # Bytes accessed per row activation (Byte)
system.mem_ctrl.dram.bytesPerActivate::256-383        21921      5.48%     42.72% # Bytes accessed per row activation (Byte)
system.mem_ctrl.dram.bytesPerActivate::384-511        30358      7.58%     50.30% # Bytes accessed per row activation (Byte)
system.mem_ctrl.dram.bytesPerActivate::512-639        52827     13.19%     63.50% # Bytes accessed per row activation (Byte)
system.mem_ctrl.dram.bytesPerActivate::640-767        14045      3.51%     67.00% # Bytes accessed per row activation (Byte)
system.mem_ctrl.dram.bytesPerActivate::768-895        13496      3.37%     70.37% # Bytes accessed per row activation (Byte)
system.mem_ctrl.dram.bytesPerActivate::896-1023        13746      3.43%     73.81% # Bytes accessed per row activation (Byte)
system.mem_ctrl.dram.bytesPerActivate::1024-1151       104864     26.19%    100.00% # Bytes accessed per row activation (Byte)
system.mem_ctrl.dram.bytesPerActivate::total       400361                       # Bytes accessed per row activation (Byte)
system.mem_ctrl.dram.bytesRead              135548864                       # Total bytes read (Byte)
system.mem_ctrl.dram.bytesWritten            71673728                       # Total bytes written (Byte)
system.mem_ctrl.dram.avgRdBW               335.023220                       # Average DRAM read bandwidth in MiBytes/s ((Byte/Second))
system.mem_ctrl.dram.avgWrBW               177.149129                       # Average DRAM write bandwidth in MiBytes/s ((Byte/Second))
system.mem_ctrl.dram.peakBW                  12800.00                       # Theoretical peak bandwidth in MiByte/s ((Byte/Second))
system.mem_ctrl.dram.busUtil                     4.00                       # Data bus utilization in percentage (Ratio)
system.mem_ctrl.dram.busUtilRead                 2.62                       # Data bus utilization in percentage for reads (Ratio)
system.mem_ctrl.dram.busUtilWrite                1.38                       # Data bus utilization in percentage for writes (Ratio)
system.mem_ctrl.dram.pageHitRate                87.63                       # Row buffer hit rate, read and write combined (Ratio)
system.mem_ctrl.dram.power_state.pwrStateResidencyTicks::UNDEFINED 404595431000                       # Cumulative time (in ticks) in various power states (Tick)
system.mem_ctrl.dram.rank0.actEnergy       1430727480                       # Energy for activate commands per rank (pJ) (Joule)
system.mem_ctrl.dram.rank0.preEnergy        760445895                       # Energy for precharge commands per rank (pJ) (Joule)
system.mem_ctrl.dram.rank0.readEnergy      7567400400                       # Energy for read commands per rank (pJ) (Joule)
system.mem_ctrl.dram.rank0.writeEnergy     2923962120                       # Energy for write commands per rank (pJ) (Joule)
system.mem_ctrl.dram.rank0.refreshEnergy 31937923680.000004                       # Energy for refresh commands per rank (pJ) (Joule)
system.mem_ctrl.dram.rank0.actBackEnergy 141202254780                       # Energy for active background per rank (pJ) (Joule)
system.mem_ctrl.dram.rank0.preBackEnergy  36457483680                       # Energy for precharge background per rank (pJ) (Joule)
system.mem_ctrl.dram.rank0.actPowerDownEnergy            0                       # Energy for active power-down per rank (pJ) (Joule)
system.mem_ctrl.dram.rank0.prePowerDownEnergy            0                       # Energy for precharge power-down per rank (pJ) (Joule)
system.mem_ctrl.dram.rank0.selfRefreshEnergy            0                       # Energy for self refresh per rank (pJ) (Joule)
system.mem_ctrl.dram.rank0.totalEnergy   222280198035                       # Total energy per rank (pJ) (Joule)
system.mem_ctrl.dram.rank0.averagePower    549.388799                       # Core power per rank (mW) (Watt)
system.mem_ctrl.dram.rank0.totalIdleTime            0                       # Total Idle time Per DRAM Rank (Tick)
system.mem_ctrl.dram.rank0.pwrStateTime::IDLE  93000773250                       # Time in different power states (Tick)
system.mem_ctrl.dram.rank0.pwrStateTime::REF  13510120000                       # Time in different power states (Tick)
system.mem_ctrl.dram.rank0.pwrStateTime::SREF            0                       # Time in different power states (Tick)
system.mem_ctrl.dram.rank0.pwrStateTime::PRE_PDN            0                       # Time in different power states (Tick)
system.mem_ctrl.dram.rank0.pwrStateTime::ACT 298084537750                       # Time in different power states (Tick)
system.mem_ctrl.dram.rank0.pwrStateTime::ACT_PDN            0                       # Time in different power states (Tick)
system.mem_ctrl.dram.rank1.actEnergy       1427857200                       # Energy for activate commands per rank (pJ) (Joule)
system.mem_ctrl.dram.rank1.preEnergy        758924100                       # Energy for precharge commands per rank (pJ) (Joule)
system.mem_ctrl.dram.rank1.readEnergy      7554769740                       # Energy for read commands per rank (pJ) (Joule)
system.mem_ctrl.dram.rank1.writeEnergy     2921926320                       # Energy for write commands per rank (pJ) (Joule)
system.mem_ctrl.dram.rank1.refreshEnergy 31937923680.000004                       # Energy for refresh commands per rank (pJ) (Joule)
system.mem_ctrl.dram.rank1.actBackEnergy 140568643350                       # Energy for active background per rank (pJ) (Joule)
system.mem_ctrl.dram.rank1.preBackEnergy  36991051200                       # Energy for precharge background per rank (pJ) (Joule)
system.mem_ctrl.dram.rank1.actPowerDownEnergy            0                       # Energy for active power-down per rank (pJ) (Joule)
system.mem_ctrl.dram.rank1.prePowerDownEnergy            0                       # Energy for precharge power-down per rank (pJ) (Joule)
system.mem_ctrl.dram.rank1.selfRefreshEnergy            0                       # Energy for self refresh per rank (pJ) (Joule)
system.mem_ctrl.dram.rank1.totalEnergy   222161095590                       # Total energy per rank (pJ) (Joule)
system.mem_ctrl.dram.rank1.averagePower    549.094425                       # Core power per rank (mW) (Watt)
system.mem_ctrl.dram.rank1.totalIdleTime            0                       # Total Idle time Per DRAM Rank (Tick)
system.mem_ctrl.dram.rank1.pwrStateTime::IDLE  94390740500                       # Time in different power states (Tick)
system.mem_ctrl.dram.rank1.pwrStateTime::REF  13510120000                       # Time in different power states (Tick)
system.mem_ctrl.dram.rank1.pwrStateTime::SREF            0                       # Time in different power states (Tick)
system.mem_ctrl.dram.rank1.pwrStateTime::PRE_PDN            0                       # Time in different power states (Tick)
system.mem_ctrl.dram.rank1.pwrStateTime::ACT 296694570500                       # Time in different power states (Tick)
system.mem_ctrl.dram.rank1.pwrStateTime::ACT_PDN            0                       # Time in different power states (Tick)
system.mem_ctrl.power_state.pwrStateResidencyTicks::UNDEFINED 404595431000                       # Cumulative time (in ticks) in various power states (Tick)
system.membus.transDist::ReadResp             1025488                       # Transaction distribution (Count)
system.membus.transDist::WritebackDirty       1119921                       # Transaction distribution (Count)
system.membus.transDist::CleanEvict            964977                       # Transaction distribution (Count)
system.membus.transDist::ReadExReq            1092463                       # Transaction distribution (Count)
system.membus.transDist::ReadExResp           1092463                       # Transaction distribution (Count)
system.membus.transDist::ReadSharedReq        1025488                       # Transaction distribution (Count)
system.membus.pktCount_system.l2cache.mem_side_port::system.mem_ctrl.port      6320800                       # Packet count per connected requestor and responder (Count)
system.membus.pktCount_system.l2cache.mem_side_port::total      6320800                       # Packet count per connected requestor and responder (Count)
system.membus.pktCount::total                 6320800                       # Packet count per connected requestor and responder (Count)
system.membus.pktSize_system.l2cache.mem_side_port::system.mem_ctrl.port    207223808                       # Cumulative packet size per connected requestor and responder (Byte)
system.membus.pktSize_system.l2cache.mem_side_port::total    207223808                       # Cumulative packet size per connected requestor and responder (Byte)
system.membus.pktSize::total                207223808                       # Cumulative packet size per connected requestor and responder (Byte)
system.membus.snoops                                0                       # Total snoops (Count)
system.membus.snoopTraffic                          0                       # Total snoop traffic (Byte)
system.membus.snoopFanout::samples            2117951                       # Request fanout histogram (Count)
system.membus.snoopFanout::mean                     0                       # Request fanout histogram (Count)
system.membus.snoopFanout::stdev                    0                       # Request fanout histogram (Count)
system.membus.snoopFanout::underflows               0      0.00%      0.00% # Request fanout histogram (Count)
system.membus.snoopFanout::0                  2117951    100.00%    100.00% # Request fanout histogram (Count)
system.membus.snoopFanout::1                        0      0.00%    100.00% # Request fanout histogram (Count)
system.membus.snoopFanout::overflows                0      0.00%    100.00% # Request fanout histogram (Count)
system.membus.snoopFanout::min_value                0                       # Request fanout histogram (Count)
system.membus.snoopFanout::max_value                0                       # Request fanout histogram (Count)
system.membus.snoopFanout::total              2117951                       # Request fanout histogram (Count)
system.membus.power_state.pwrStateResidencyTicks::UNDEFINED 404595431000                       # Cumulative time (in ticks) in various power states (Tick)
system.membus.reqLayer2.occupancy          8682533000                       # Layer occupancy (ticks) (Tick)
system.membus.reqLayer2.utilization               0.0                       # Layer utilization (Ratio)
system.membus.respLayer0.occupancy        11171328000                       # Layer occupancy (ticks) (Tick)
system.membus.respLayer0.utilization              0.0                       # Layer utilization (Ratio)
system.membus.snoop_filter.totRequests        4202849                       # Total number of requests made to the snoop filter. (Count)
system.membus.snoop_filter.hitSingleRequests      2084899                       # Number of requests hitting in the snoop filter with a single holder of the requested data. (Count)
system.membus.snoop_filter.hitMultiRequests            0                       # Number of requests hitting in the snoop filter with multiple (>1) holders of the requested data. (Count)
system.membus.snoop_filter.totSnoops                0                       # Total number of snoops made to the snoop filter. (Count)
system.membus.snoop_filter.hitSingleSnoops            0                       # Number of snoops hitting in the snoop filter with a single holder of the requested data. (Count)
system.membus.snoop_filter.hitMultiSnoops            0                       # Number of snoops hitting in the snoop filter with multiple (>1) holders of the requested data. (Count)
system.workload.inst.arm                            0                       # number of arm instructions executed (Count)
system.workload.inst.quiesce                        0                       # number of quiesce instructions executed (Count)

---------- End Simulation Statistics   ----------
