
---------- Begin Simulation Statistics ----------
simSeconds                                   0.062793                       # Number of seconds simulated (Second)
simTicks                                  62793091000                       # Number of ticks simulated (Tick)
finalTick                                 62793091000                       # Number of ticks from beginning of simulation (restored from checkpoints and never reset) (Tick)
simFreq                                  1000000000000                       # The number of ticks per simulated second ((Tick/Second))
hostSeconds                                    307.61                       # Real time elapsed on the host (Second)
hostTickRate                                204132644                       # The number of ticks simulated per host second (ticks/s) ((Tick/Second))
hostMemory                                    8528532                       # Number of bytes of host memory used (Byte)
simInsts                                     50000000                       # Number of instructions simulated (Count)
simOps                                       94757854                       # Number of ops (including micro ops) simulated (Count)
hostInstRate                                   162544                       # Simulator instruction rate (inst/s) ((Count/Second))
hostOpRate                                     308046                       # Simulator op (including micro ops) rate (op/s) ((Count/Second))
system.clk_domain.clock                          1000                       # Clock period in ticks (Tick)
system.clk_domain.voltage_domain.voltage            1                       # Voltage in Volts (Volt)
system.cpu.numCycles                         62793092                       # Number of cpu cycles simulated (Cycle)
system.cpu.numWorkItemsStarted                      0                       # Number of work items this cpu started (Count)
system.cpu.numWorkItemsCompleted                    0                       # Number of work items this cpu completed (Count)
system.cpu.instsAdded                       186405788                       # Number of instructions added to the IQ (excludes non-spec) (Count)
system.cpu.nonSpecInstsAdded                   154395                       # Number of non-speculative instructions added to the IQ (Count)
system.cpu.instsIssued                      162127606                       # Number of instructions issued (Count)
system.cpu.squashedInstsIssued                 612519                       # Number of squashed instructions issued (Count)
system.cpu.squashedInstsExamined             91802313                       # Number of squashed instructions iterated over during squash; mainly for profiling (Count)
system.cpu.squashedOperandsExamined         135548949                       # Number of squashed operands that are examined and possibly removed from graph (Count)
system.cpu.squashedNonSpecRemoved              154359                       # Number of squashed non-spec instructions that were removed (Count)
system.cpu.numIssuedDist::samples            62766910                       # Number of insts issued each cycle (Count)
system.cpu.numIssuedDist::mean               2.583011                       # Number of insts issued each cycle (Count)
system.cpu.numIssuedDist::stdev              2.806191                       # Number of insts issued each cycle (Count)
system.cpu.numIssuedDist::underflows                0      0.00%      0.00% # Number of insts issued each cycle (Count)
system.cpu.numIssuedDist::0                  28577408     45.53%     45.53% # Number of insts issued each cycle (Count)
system.cpu.numIssuedDist::1                   2881500      4.59%     50.12% # Number of insts issued each cycle (Count)
system.cpu.numIssuedDist::2                   3530096      5.62%     55.74% # Number of insts issued each cycle (Count)
system.cpu.numIssuedDist::3                   3759216      5.99%     61.73% # Number of insts issued each cycle (Count)
system.cpu.numIssuedDist::4                   3711106      5.91%     67.65% # Number of insts issued each cycle (Count)
system.cpu.numIssuedDist::5                   5697143      9.08%     76.72% # Number of insts issued each cycle (Count)
system.cpu.numIssuedDist::6                   7460148     11.89%     88.61% # Number of insts issued each cycle (Count)
system.cpu.numIssuedDist::7                   4385105      6.99%     95.59% # Number of insts issued each cycle (Count)
system.cpu.numIssuedDist::8                   2765188      4.41%    100.00% # Number of insts issued each cycle (Count)
system.cpu.numIssuedDist::overflows                 0      0.00%    100.00% # Number of insts issued each cycle (Count)
system.cpu.numIssuedDist::min_value                 0                       # Number of insts issued each cycle (Count)
system.cpu.numIssuedDist::max_value                 8                       # Number of insts issued each cycle (Count)
system.cpu.numIssuedDist::total              62766910                       # Number of insts issued each cycle (Count)
system.cpu.statFuBusy::No_OpClass                   0      0.00%      0.00% # attempts to use FU when none available (Count)
system.cpu.statFuBusy::IntAlu                 3903450     93.30%     93.30% # attempts to use FU when none available (Count)
system.cpu.statFuBusy::IntMult                      0      0.00%     93.30% # attempts to use FU when none available (Count)
system.cpu.statFuBusy::IntDiv                       0      0.00%     93.30% # attempts to use FU when none available (Count)
system.cpu.statFuBusy::FloatAdd                     0      0.00%     93.30% # attempts to use FU when none available (Count)
system.cpu.statFuBusy::FloatCmp                     0      0.00%     93.30% # attempts to use FU when none available (Count)
system.cpu.statFuBusy::FloatCvt                     0      0.00%     93.30% # attempts to use FU when none available (Count)
system.cpu.statFuBusy::FloatMult                    0      0.00%     93.30% # attempts to use FU when none available (Count)
system.cpu.statFuBusy::FloatMultAcc                 0      0.00%     93.30% # attempts to use FU when none available (Count)
system.cpu.statFuBusy::FloatDiv                     0      0.00%     93.30% # attempts to use FU when none available (Count)
system.cpu.statFuBusy::FloatMisc                    0      0.00%     93.30% # attempts to use FU when none available (Count)
system.cpu.statFuBusy::FloatSqrt                    0      0.00%     93.30% # attempts to use FU when none available (Count)
system.cpu.statFuBusy::SimdAdd                      0      0.00%     93.30% # attempts to use FU when none available (Count)
system.cpu.statFuBusy::SimdAddAcc                   0      0.00%     93.30% # attempts to use FU when none available (Count)
system.cpu.statFuBusy::SimdAlu                     13      0.00%     93.30% # attempts to use FU when none available (Count)
system.cpu.statFuBusy::SimdCmp                      0      0.00%     93.30% # attempts to use FU when none available (Count)
system.cpu.statFuBusy::SimdCvt                     49      0.00%     93.30% # attempts to use FU when none available (Count)
system.cpu.statFuBusy::SimdMisc                     8      0.00%     93.30% # attempts to use FU when none available (Count)
system.cpu.statFuBusy::SimdMult                     0      0.00%     93.30% # attempts to use FU when none available (Count)
system.cpu.statFuBusy::SimdMultAcc                  0      0.00%     93.30% # attempts to use FU when none available (Count)
system.cpu.statFuBusy::SimdShift                    0      0.00%     93.30% # attempts to use FU when none available (Count)
system.cpu.statFuBusy::SimdShiftAcc                 0      0.00%     93.30% # attempts to use FU when none available (Count)
system.cpu.statFuBusy::SimdDiv                      0      0.00%     93.30% # attempts to use FU when none available (Count)
system.cpu.statFuBusy::SimdSqrt                     0      0.00%     93.30% # attempts to use FU when none available (Count)
system.cpu.statFuBusy::SimdFloatAdd                 0      0.00%     93.30% # attempts to use FU when none available (Count)
system.cpu.statFuBusy::SimdFloatAlu                 0      0.00%     93.30% # attempts to use FU when none available (Count)
system.cpu.statFuBusy::SimdFloatCmp                 0      0.00%     93.30% # attempts to use FU when none available (Count)
system.cpu.statFuBusy::SimdFloatCvt                 0      0.00%     93.30% # attempts to use FU when none available (Count)
system.cpu.statFuBusy::SimdFloatDiv                 0      0.00%     93.30% # attempts to use FU when none available (Count)
system.cpu.statFuBusy::SimdFloatMisc                0      0.00%     93.30% # attempts to use FU when none available (Count)
system.cpu.statFuBusy::SimdFloatMult                0      0.00%     93.30% # attempts to use FU when none available (Count)
system.cpu.statFuBusy::SimdFloatMultAcc             0      0.00%     93.30% # attempts to use FU when none available (Count)
system.cpu.statFuBusy::SimdFloatSqrt                0      0.00%     93.30% # attempts to use FU when none available (Count)
system.cpu.statFuBusy::SimdReduceAdd                0      0.00%     93.30% # attempts to use FU when none available (Count)
system.cpu.statFuBusy::SimdReduceAlu                0      0.00%     93.30% # attempts to use FU when none available (Count)
system.cpu.statFuBusy::SimdReduceCmp                0      0.00%     93.30% # attempts to use FU when none available (Count)
system.cpu.statFuBusy::SimdFloatReduceAdd            0      0.00%     93.30% # attempts to use FU when none available (Count)
system.cpu.statFuBusy::SimdFloatReduceCmp            0      0.00%     93.30% # attempts to use FU when none available (Count)
system.cpu.statFuBusy::SimdAes                      0      0.00%     93.30% # attempts to use FU when none available (Count)
system.cpu.statFuBusy::SimdAesMix                   0      0.00%     93.30% # attempts to use FU when none available (Count)
system.cpu.statFuBusy::SimdSha1Hash                 0      0.00%     93.30% # attempts to use FU when none available (Count)
system.cpu.statFuBusy::SimdSha1Hash2                0      0.00%     93.30% # attempts to use FU when none available (Count)
system.cpu.statFuBusy::SimdSha256Hash               0      0.00%     93.30% # attempts to use FU when none available (Count)
system.cpu.statFuBusy::SimdSha256Hash2              0      0.00%     93.30% # attempts to use FU when none available (Count)
system.cpu.statFuBusy::SimdShaSigma2                0      0.00%     93.30% # attempts to use FU when none available (Count)
system.cpu.statFuBusy::SimdShaSigma3                0      0.00%     93.30% # attempts to use FU when none available (Count)
system.cpu.statFuBusy::SimdPredAlu                  0      0.00%     93.30% # attempts to use FU when none available (Count)
system.cpu.statFuBusy::MemRead                 177657      4.25%     97.55% # attempts to use FU when none available (Count)
system.cpu.statFuBusy::MemWrite                  1369      0.03%     97.58% # attempts to use FU when none available (Count)
system.cpu.statFuBusy::FloatMemRead                 5      0.00%     97.58% # attempts to use FU when none available (Count)
system.cpu.statFuBusy::FloatMemWrite           101075      2.42%    100.00% # attempts to use FU when none available (Count)
system.cpu.statFuBusy::IprAccess                    0      0.00%    100.00% # attempts to use FU when none available (Count)
system.cpu.statFuBusy::InstPrefetch                 0      0.00%    100.00% # attempts to use FU when none available (Count)
system.cpu.statIssuedInstType_0::No_OpClass      1010603      0.62%      0.62% # Number of instructions issued per FU type, per thread (Count)
system.cpu.statIssuedInstType_0::IntAlu     129047739     79.60%     80.22% # Number of instructions issued per FU type, per thread (Count)
system.cpu.statIssuedInstType_0::IntMult       230152      0.14%     80.36% # Number of instructions issued per FU type, per thread (Count)
system.cpu.statIssuedInstType_0::IntDiv            36      0.00%     80.36% # Number of instructions issued per FU type, per thread (Count)
system.cpu.statIssuedInstType_0::FloatAdd        50759      0.03%     80.39% # Number of instructions issued per FU type, per thread (Count)
system.cpu.statIssuedInstType_0::FloatCmp            0      0.00%     80.39% # Number of instructions issued per FU type, per thread (Count)
system.cpu.statIssuedInstType_0::FloatCvt            0      0.00%     80.39% # Number of instructions issued per FU type, per thread (Count)
system.cpu.statIssuedInstType_0::FloatMult            0      0.00%     80.39% # Number of instructions issued per FU type, per thread (Count)
system.cpu.statIssuedInstType_0::FloatMultAcc            0      0.00%     80.39% # Number of instructions issued per FU type, per thread (Count)
system.cpu.statIssuedInstType_0::FloatDiv            0      0.00%     80.39% # Number of instructions issued per FU type, per thread (Count)
system.cpu.statIssuedInstType_0::FloatMisc            0      0.00%     80.39% # Number of instructions issued per FU type, per thread (Count)
system.cpu.statIssuedInstType_0::FloatSqrt            0      0.00%     80.39% # Number of instructions issued per FU type, per thread (Count)
system.cpu.statIssuedInstType_0::SimdAdd            0      0.00%     80.39% # Number of instructions issued per FU type, per thread (Count)
system.cpu.statIssuedInstType_0::SimdAddAcc            0      0.00%     80.39% # Number of instructions issued per FU type, per thread (Count)
system.cpu.statIssuedInstType_0::SimdAlu          126      0.00%     80.39% # Number of instructions issued per FU type, per thread (Count)
system.cpu.statIssuedInstType_0::SimdCmp            0      0.00%     80.39% # Number of instructions issued per FU type, per thread (Count)
system.cpu.statIssuedInstType_0::SimdCvt       276650      0.17%     80.56% # Number of instructions issued per FU type, per thread (Count)
system.cpu.statIssuedInstType_0::SimdMisc       573105      0.35%     80.92% # Number of instructions issued per FU type, per thread (Count)
system.cpu.statIssuedInstType_0::SimdMult            0      0.00%     80.92% # Number of instructions issued per FU type, per thread (Count)
system.cpu.statIssuedInstType_0::SimdMultAcc            0      0.00%     80.92% # Number of instructions issued per FU type, per thread (Count)
system.cpu.statIssuedInstType_0::SimdShift            0      0.00%     80.92% # Number of instructions issued per FU type, per thread (Count)
system.cpu.statIssuedInstType_0::SimdShiftAcc            0      0.00%     80.92% # Number of instructions issued per FU type, per thread (Count)
system.cpu.statIssuedInstType_0::SimdDiv            0      0.00%     80.92% # Number of instructions issued per FU type, per thread (Count)
system.cpu.statIssuedInstType_0::SimdSqrt            0      0.00%     80.92% # Number of instructions issued per FU type, per thread (Count)
system.cpu.statIssuedInstType_0::SimdFloatAdd            0      0.00%     80.92% # Number of instructions issued per FU type, per thread (Count)
system.cpu.statIssuedInstType_0::SimdFloatAlu            0      0.00%     80.92% # Number of instructions issued per FU type, per thread (Count)
system.cpu.statIssuedInstType_0::SimdFloatCmp            0      0.00%     80.92% # Number of instructions issued per FU type, per thread (Count)
system.cpu.statIssuedInstType_0::SimdFloatCvt            0      0.00%     80.92% # Number of instructions issued per FU type, per thread (Count)
system.cpu.statIssuedInstType_0::SimdFloatDiv            0      0.00%     80.92% # Number of instructions issued per FU type, per thread (Count)
system.cpu.statIssuedInstType_0::SimdFloatMisc            0      0.00%     80.92% # Number of instructions issued per FU type, per thread (Count)
system.cpu.statIssuedInstType_0::SimdFloatMult            0      0.00%     80.92% # Number of instructions issued per FU type, per thread (Count)
system.cpu.statIssuedInstType_0::SimdFloatMultAcc            0      0.00%     80.92% # Number of instructions issued per FU type, per thread (Count)
system.cpu.statIssuedInstType_0::SimdFloatSqrt            0      0.00%     80.92% # Number of instructions issued per FU type, per thread (Count)
system.cpu.statIssuedInstType_0::SimdReduceAdd            0      0.00%     80.92% # Number of instructions issued per FU type, per thread (Count)
system.cpu.statIssuedInstType_0::SimdReduceAlu            0      0.00%     80.92% # Number of instructions issued per FU type, per thread (Count)
system.cpu.statIssuedInstType_0::SimdReduceCmp            0      0.00%     80.92% # Number of instructions issued per FU type, per thread (Count)
system.cpu.statIssuedInstType_0::SimdFloatReduceAdd            0      0.00%     80.92% # Number of instructions issued per FU type, per thread (Count)
system.cpu.statIssuedInstType_0::SimdFloatReduceCmp            0      0.00%     80.92% # Number of instructions issued per FU type, per thread (Count)
system.cpu.statIssuedInstType_0::SimdAes            0      0.00%     80.92% # Number of instructions issued per FU type, per thread (Count)
system.cpu.statIssuedInstType_0::SimdAesMix            0      0.00%     80.92% # Number of instructions issued per FU type, per thread (Count)
system.cpu.statIssuedInstType_0::SimdSha1Hash            0      0.00%     80.92% # Number of instructions issued per FU type, per thread (Count)
system.cpu.statIssuedInstType_0::SimdSha1Hash2            0      0.00%     80.92% # Number of instructions issued per FU type, per thread (Count)
system.cpu.statIssuedInstType_0::SimdSha256Hash            0      0.00%     80.92% # Number of instructions issued per FU type, per thread (Count)
system.cpu.statIssuedInstType_0::SimdSha256Hash2            0      0.00%     80.92% # Number of instructions issued per FU type, per thread (Count)
system.cpu.statIssuedInstType_0::SimdShaSigma2            0      0.00%     80.92% # Number of instructions issued per FU type, per thread (Count)
system.cpu.statIssuedInstType_0::SimdShaSigma3            0      0.00%     80.92% # Number of instructions issued per FU type, per thread (Count)
system.cpu.statIssuedInstType_0::SimdPredAlu            0      0.00%     80.92% # Number of instructions issued per FU type, per thread (Count)
system.cpu.statIssuedInstType_0::MemRead     18601810     11.47%     92.39% # Number of instructions issued per FU type, per thread (Count)
system.cpu.statIssuedInstType_0::MemWrite     11543865      7.12%     99.51% # Number of instructions issued per FU type, per thread (Count)
system.cpu.statIssuedInstType_0::FloatMemRead       489031      0.30%     99.81% # Number of instructions issued per FU type, per thread (Count)
system.cpu.statIssuedInstType_0::FloatMemWrite       303730      0.19%    100.00% # Number of instructions issued per FU type, per thread (Count)
system.cpu.statIssuedInstType_0::IprAccess            0      0.00%    100.00% # Number of instructions issued per FU type, per thread (Count)
system.cpu.statIssuedInstType_0::InstPrefetch            0      0.00%    100.00% # Number of instructions issued per FU type, per thread (Count)
system.cpu.statIssuedInstType_0::total      162127606                       # Number of instructions issued per FU type, per thread (Count)
system.cpu.issueRate                         2.581934                       # Inst issue rate ((Count/Cycle))
system.cpu.fuBusy                             4183626                       # FU busy when requested (Count)
system.cpu.fuBusyRate                        0.025805                       # FU busy rate (busy events/executed inst) ((Count/Count))
system.cpu.intInstQueueReads                388178429                       # Number of integer instruction queue reads (Count)
system.cpu.intInstQueueWrites               274702006                       # Number of integer instruction queue writes (Count)
system.cpu.intInstQueueWakeupAccesses       150037492                       # Number of integer instruction queue wakeup accesses (Count)
system.cpu.fpInstQueueReads                   3639836                       # Number of floating instruction queue reads (Count)
system.cpu.fpInstQueueWrites                  3661685                       # Number of floating instruction queue writes (Count)
system.cpu.fpInstQueueWakeupAccesses          1430976                       # Number of floating instruction queue wakeup accesses (Count)
system.cpu.vecInstQueueReads                        0                       # Number of vector instruction queue reads (Count)
system.cpu.vecInstQueueWrites                       0                       # Number of vector instruction queue writes (Count)
system.cpu.vecInstQueueWakeupAccesses               0                       # Number of vector instruction queue wakeup accesses (Count)
system.cpu.intAluAccesses                   163455313                       # Number of integer alu accesses (Count)
system.cpu.fpAluAccesses                      1845316                       # Number of floating point alu accesses (Count)
system.cpu.vecAluAccesses                           0                       # Number of vector alu accesses (Count)
system.cpu.numInsts                         154624469                       # Number of executed instructions (Count)
system.cpu.numLoadInsts                      17718908                       # Number of load instructions executed (Count)
system.cpu.numSquashedInsts                   7503135                       # Number of squashed instructions skipped in execute (Count)
system.cpu.numSwp                                   0                       # Number of swp insts executed (Count)
system.cpu.numNop                                   0                       # Number of nop insts executed (Count)
system.cpu.numRefs                           28709664                       # Number of memory reference insts executed (Count)
system.cpu.numBranches                       17389899                       # Number of branches executed (Count)
system.cpu.numStoreInsts                     10990756                       # Number of stores executed (Count)
system.cpu.numRate                           2.462444                       # Inst execution rate ((Count/Cycle))
system.cpu.timesIdled                             452                       # Number of times that the entire CPU went into an idle state and unscheduled itself (Count)
system.cpu.idleCycles                           26182                       # Total number of cycles that the CPU has spent unscheduled due to idling (Cycle)
system.cpu.committedInsts                    50000000                       # Number of Instructions Simulated (Count)
system.cpu.committedOps                      94757854                       # Number of Ops (including micro ops) Simulated (Count)
system.cpu.cpi                               1.255862                       # CPI: Cycles Per Instruction ((Cycle/Count))
system.cpu.totalCpi                          1.255862                       # CPI: Total CPI of All Threads ((Cycle/Count))
system.cpu.ipc                               0.796266                       # IPC: Instructions Per Cycle ((Count/Cycle))
system.cpu.totalIpc                          0.796266                       # IPC: Total IPC of All Threads ((Count/Cycle))
system.cpu.intRegfileReads                  177349543                       # Number of integer regfile reads (Count)
system.cpu.intRegfileWrites                 107835242                       # Number of integer regfile writes (Count)
system.cpu.fpRegfileReads                     2113822                       # Number of floating regfile reads (Count)
system.cpu.fpRegfileWrites                    1073506                       # Number of floating regfile writes (Count)
system.cpu.ccRegfileReads                    83412945                       # number of cc regfile reads (Count)
system.cpu.ccRegfileWrites                   45304946                       # number of cc regfile writes (Count)
system.cpu.miscRegfileReads                  66209240                       # number of misc regfile reads (Count)
system.cpu.MemDepUnit__0.insertedLoads       22057483                       # Number of loads inserted to the mem dependence unit. (Count)
system.cpu.MemDepUnit__0.insertedStores      14453416                       # Number of stores inserted to the mem dependence unit. (Count)
system.cpu.MemDepUnit__0.conflictingLoads       970515                       # Number of conflicting loads. (Count)
system.cpu.MemDepUnit__0.conflictingStores       180842                       # Number of conflicting stores. (Count)
system.cpu.MemDepUnit__1.insertedLoads              0                       # Number of loads inserted to the mem dependence unit. (Count)
system.cpu.MemDepUnit__1.insertedStores             0                       # Number of stores inserted to the mem dependence unit. (Count)
system.cpu.MemDepUnit__1.conflictingLoads            0                       # Number of conflicting loads. (Count)
system.cpu.MemDepUnit__1.conflictingStores            0                       # Number of conflicting stores. (Count)
system.cpu.MemDepUnit__2.insertedLoads              0                       # Number of loads inserted to the mem dependence unit. (Count)
system.cpu.MemDepUnit__2.insertedStores             0                       # Number of stores inserted to the mem dependence unit. (Count)
system.cpu.MemDepUnit__2.conflictingLoads            0                       # Number of conflicting loads. (Count)
system.cpu.MemDepUnit__2.conflictingStores            0                       # Number of conflicting stores. (Count)
system.cpu.MemDepUnit__3.insertedLoads              0                       # Number of loads inserted to the mem dependence unit. (Count)
system.cpu.MemDepUnit__3.insertedStores             0                       # Number of stores inserted to the mem dependence unit. (Count)
system.cpu.MemDepUnit__3.conflictingLoads            0                       # Number of conflicting loads. (Count)
system.cpu.MemDepUnit__3.conflictingStores            0                       # Number of conflicting stores. (Count)
system.cpu.branchPred.lookups                29445837                       # Number of BP lookups (Count)
system.cpu.branchPred.condPredicted          22303761                       # Number of conditional branches predicted (Count)
system.cpu.branchPred.condIncorrect           2912016                       # Number of conditional branches incorrect (Count)
system.cpu.branchPred.BTBLookups              4651730                       # Number of BTB lookups (Count)
system.cpu.branchPred.BTBHits                 4629436                       # Number of BTB hits (Count)
system.cpu.branchPred.BTBHitRatio            0.995207                       # BTB Hit Ratio (Ratio)
system.cpu.branchPred.RASUsed                 1672925                       # Number of times the RAS was used to get a target. (Count)
system.cpu.branchPred.RASIncorrect             112810                       # Number of incorrect RAS predictions. (Count)
system.cpu.branchPred.indirectLookups          817421                       # Number of indirect predictor lookups. (Count)
system.cpu.branchPred.indirectHits             140305                       # Number of indirect target hits. (Count)
system.cpu.branchPred.indirectMisses           677116                       # Number of indirect misses. (Count)
system.cpu.branchPred.indirectMispredicted           75                       # Number of mispredicted indirect branches. (Count)
system.cpu.commit.commitSquashedInsts        91774229                       # The number of squashed insts skipped by commit (Count)
system.cpu.commit.commitNonSpecStalls              36                       # The number of times commit has been forced to stall to communicate backwards (Count)
system.cpu.commit.branchMispredicts           2982658                       # The number of times a branch was mispredicted (Count)
system.cpu.commit.numCommittedDist::samples     49483716                       # Number of insts commited each cycle (Count)
system.cpu.commit.numCommittedDist::mean     1.914930                       # Number of insts commited each cycle (Count)
system.cpu.commit.numCommittedDist::stdev     2.563801                       # Number of insts commited each cycle (Count)
system.cpu.commit.numCommittedDist::underflows            0      0.00%      0.00% # Number of insts commited each cycle (Count)
system.cpu.commit.numCommittedDist::0        23551814     47.60%     47.60% # Number of insts commited each cycle (Count)
system.cpu.commit.numCommittedDist::1         6101421     12.33%     59.93% # Number of insts commited each cycle (Count)
system.cpu.commit.numCommittedDist::2         4652881      9.40%     69.33% # Number of insts commited each cycle (Count)
system.cpu.commit.numCommittedDist::3         5147723     10.40%     79.73% # Number of insts commited each cycle (Count)
system.cpu.commit.numCommittedDist::4         2358520      4.77%     84.50% # Number of insts commited each cycle (Count)
system.cpu.commit.numCommittedDist::5         1362916      2.75%     87.25% # Number of insts commited each cycle (Count)
system.cpu.commit.numCommittedDist::6         1126686      2.28%     89.53% # Number of insts commited each cycle (Count)
system.cpu.commit.numCommittedDist::7          555314      1.12%     90.65% # Number of insts commited each cycle (Count)
system.cpu.commit.numCommittedDist::8         4626441      9.35%    100.00% # Number of insts commited each cycle (Count)
system.cpu.commit.numCommittedDist::overflows            0      0.00%    100.00% # Number of insts commited each cycle (Count)
system.cpu.commit.numCommittedDist::min_value            0                       # Number of insts commited each cycle (Count)
system.cpu.commit.numCommittedDist::max_value            8                       # Number of insts commited each cycle (Count)
system.cpu.commit.numCommittedDist::total     49483716                       # Number of insts commited each cycle (Count)
system.cpu.commit.instsCommitted             50000000                       # Number of instructions committed (Count)
system.cpu.commit.opsCommitted               94757854                       # Number of ops (including micro ops) committed (Count)
system.cpu.commit.memRefs                    17616402                       # Number of memory references committed (Count)
system.cpu.commit.loads                      10653360                       # Number of loads committed (Count)
system.cpu.commit.amos                              0                       # Number of atomic instructions committed (Count)
system.cpu.commit.membars                          24                       # Number of memory barriers committed (Count)
system.cpu.commit.branches                   11816955                       # Number of branches committed (Count)
system.cpu.commit.vectorInstructions                0                       # Number of committed Vector instructions. (Count)
system.cpu.commit.floating                     797407                       # Number of committed floating point instructions. (Count)
system.cpu.commit.integer                    93840963                       # Number of committed integer instructions. (Count)
system.cpu.commit.functionCalls                489612                       # Number of function calls committed. (Count)
system.cpu.commit.committedInstType_0::No_OpClass       206365      0.22%      0.22% # Class of committed instruction (Count)
system.cpu.commit.committedInstType_0::IntAlu     76071911     80.28%     80.50% # Class of committed instruction (Count)
system.cpu.commit.committedInstType_0::IntMult       230150      0.24%     80.74% # Class of committed instruction (Count)
system.cpu.commit.committedInstType_0::IntDiv           28      0.00%     80.74% # Class of committed instruction (Count)
system.cpu.commit.committedInstType_0::FloatAdd        50759      0.05%     80.79% # Class of committed instruction (Count)
system.cpu.commit.committedInstType_0::FloatCmp            0      0.00%     80.79% # Class of committed instruction (Count)
system.cpu.commit.committedInstType_0::FloatCvt            0      0.00%     80.79% # Class of committed instruction (Count)
system.cpu.commit.committedInstType_0::FloatMult            0      0.00%     80.79% # Class of committed instruction (Count)
system.cpu.commit.committedInstType_0::FloatMultAcc            0      0.00%     80.79% # Class of committed instruction (Count)
system.cpu.commit.committedInstType_0::FloatDiv            0      0.00%     80.79% # Class of committed instruction (Count)
system.cpu.commit.committedInstType_0::FloatMisc            0      0.00%     80.79% # Class of committed instruction (Count)
system.cpu.commit.committedInstType_0::FloatSqrt            0      0.00%     80.79% # Class of committed instruction (Count)
system.cpu.commit.committedInstType_0::SimdAdd            0      0.00%     80.79% # Class of committed instruction (Count)
system.cpu.commit.committedInstType_0::SimdAddAcc            0      0.00%     80.79% # Class of committed instruction (Count)
system.cpu.commit.committedInstType_0::SimdAlu           98      0.00%     80.79% # Class of committed instruction (Count)
system.cpu.commit.committedInstType_0::SimdCmp            0      0.00%     80.79% # Class of committed instruction (Count)
system.cpu.commit.committedInstType_0::SimdCvt       113412      0.12%     80.91% # Class of committed instruction (Count)
system.cpu.commit.committedInstType_0::SimdMisc       468729      0.49%     81.41% # Class of committed instruction (Count)
system.cpu.commit.committedInstType_0::SimdMult            0      0.00%     81.41% # Class of committed instruction (Count)
system.cpu.commit.committedInstType_0::SimdMultAcc            0      0.00%     81.41% # Class of committed instruction (Count)
system.cpu.commit.committedInstType_0::SimdShift            0      0.00%     81.41% # Class of committed instruction (Count)
system.cpu.commit.committedInstType_0::SimdShiftAcc            0      0.00%     81.41% # Class of committed instruction (Count)
system.cpu.commit.committedInstType_0::SimdDiv            0      0.00%     81.41% # Class of committed instruction (Count)
system.cpu.commit.committedInstType_0::SimdSqrt            0      0.00%     81.41% # Class of committed instruction (Count)
system.cpu.commit.committedInstType_0::SimdFloatAdd            0      0.00%     81.41% # Class of committed instruction (Count)
system.cpu.commit.committedInstType_0::SimdFloatAlu            0      0.00%     81.41% # Class of committed instruction (Count)
system.cpu.commit.committedInstType_0::SimdFloatCmp            0      0.00%     81.41% # Class of committed instruction (Count)
system.cpu.commit.committedInstType_0::SimdFloatCvt            0      0.00%     81.41% # Class of committed instruction (Count)
system.cpu.commit.committedInstType_0::SimdFloatDiv            0      0.00%     81.41% # Class of committed instruction (Count)
system.cpu.commit.committedInstType_0::SimdFloatMisc            0      0.00%     81.41% # Class of committed instruction (Count)
system.cpu.commit.committedInstType_0::SimdFloatMult            0      0.00%     81.41% # Class of committed instruction (Count)
system.cpu.commit.committedInstType_0::SimdFloatMultAcc            0      0.00%     81.41% # Class of committed instruction (Count)
system.cpu.commit.committedInstType_0::SimdFloatSqrt            0      0.00%     81.41% # Class of committed instruction (Count)
system.cpu.commit.committedInstType_0::SimdReduceAdd            0      0.00%     81.41% # Class of committed instruction (Count)
system.cpu.commit.committedInstType_0::SimdReduceAlu            0      0.00%     81.41% # Class of committed instruction (Count)
system.cpu.commit.committedInstType_0::SimdReduceCmp            0      0.00%     81.41% # Class of committed instruction (Count)
system.cpu.commit.committedInstType_0::SimdFloatReduceAdd            0      0.00%     81.41% # Class of committed instruction (Count)
system.cpu.commit.committedInstType_0::SimdFloatReduceCmp            0      0.00%     81.41% # Class of committed instruction (Count)
system.cpu.commit.committedInstType_0::SimdAes            0      0.00%     81.41% # Class of committed instruction (Count)
system.cpu.commit.committedInstType_0::SimdAesMix            0      0.00%     81.41% # Class of committed instruction (Count)
system.cpu.commit.committedInstType_0::SimdSha1Hash            0      0.00%     81.41% # Class of committed instruction (Count)
system.cpu.commit.committedInstType_0::SimdSha1Hash2            0      0.00%     81.41% # Class of committed instruction (Count)
system.cpu.commit.committedInstType_0::SimdSha256Hash            0      0.00%     81.41% # Class of committed instruction (Count)
system.cpu.commit.committedInstType_0::SimdSha256Hash2            0      0.00%     81.41% # Class of committed instruction (Count)
system.cpu.commit.committedInstType_0::SimdShaSigma2            0      0.00%     81.41% # Class of committed instruction (Count)
system.cpu.commit.committedInstType_0::SimdShaSigma3            0      0.00%     81.41% # Class of committed instruction (Count)
system.cpu.commit.committedInstType_0::SimdPredAlu            0      0.00%     81.41% # Class of committed instruction (Count)
system.cpu.commit.committedInstType_0::MemRead     10539956     11.12%     92.53% # Class of committed instruction (Count)
system.cpu.commit.committedInstType_0::MemWrite      6962802      7.35%     99.88% # Class of committed instruction (Count)
system.cpu.commit.committedInstType_0::FloatMemRead       113404      0.12%    100.00% # Class of committed instruction (Count)
system.cpu.commit.committedInstType_0::FloatMemWrite          240      0.00%    100.00% # Class of committed instruction (Count)
system.cpu.commit.committedInstType_0::IprAccess            0      0.00%    100.00% # Class of committed instruction (Count)
system.cpu.commit.committedInstType_0::InstPrefetch            0      0.00%    100.00% # Class of committed instruction (Count)
system.cpu.commit.committedInstType_0::total     94757854                       # Class of committed instruction (Count)
system.cpu.commit.commitEligibleSamples       4626441                       # number cycles where commit BW limit reached (Cycle)
system.cpu.dcache.demandHits::cpu.data       22637789                       # number of demand (read+write) hits (Count)
system.cpu.dcache.demandHits::total          22637789                       # number of demand (read+write) hits (Count)
system.cpu.dcache.overallHits::cpu.data      22637789                       # number of overall hits (Count)
system.cpu.dcache.overallHits::total         22637789                       # number of overall hits (Count)
system.cpu.dcache.demandMisses::cpu.data        82984                       # number of demand (read+write) misses (Count)
system.cpu.dcache.demandMisses::total           82984                       # number of demand (read+write) misses (Count)
system.cpu.dcache.overallMisses::cpu.data        82984                       # number of overall misses (Count)
system.cpu.dcache.overallMisses::total          82984                       # number of overall misses (Count)
system.cpu.dcache.demandMissLatency::cpu.data   6880931999                       # number of demand (read+write) miss ticks (Tick)
system.cpu.dcache.demandMissLatency::total   6880931999                       # number of demand (read+write) miss ticks (Tick)
system.cpu.dcache.overallMissLatency::cpu.data   6880931999                       # number of overall miss ticks (Tick)
system.cpu.dcache.overallMissLatency::total   6880931999                       # number of overall miss ticks (Tick)
system.cpu.dcache.demandAccesses::cpu.data     22720773                       # number of demand (read+write) accesses (Count)
system.cpu.dcache.demandAccesses::total      22720773                       # number of demand (read+write) accesses (Count)
system.cpu.dcache.overallAccesses::cpu.data     22720773                       # number of overall (read+write) accesses (Count)
system.cpu.dcache.overallAccesses::total     22720773                       # number of overall (read+write) accesses (Count)
system.cpu.dcache.demandMissRate::cpu.data     0.003652                       # miss rate for demand accesses (Ratio)
system.cpu.dcache.demandMissRate::total      0.003652                       # miss rate for demand accesses (Ratio)
system.cpu.dcache.overallMissRate::cpu.data     0.003652                       # miss rate for overall accesses (Ratio)
system.cpu.dcache.overallMissRate::total     0.003652                       # miss rate for overall accesses (Ratio)
system.cpu.dcache.demandAvgMissLatency::cpu.data 82918.779512                       # average overall miss latency in ticks ((Tick/Count))
system.cpu.dcache.demandAvgMissLatency::total 82918.779512                       # average overall miss latency in ticks ((Tick/Count))
system.cpu.dcache.overallAvgMissLatency::cpu.data 82918.779512                       # average overall miss latency ((Tick/Count))
system.cpu.dcache.overallAvgMissLatency::total 82918.779512                       # average overall miss latency ((Tick/Count))
system.cpu.dcache.blockedCycles::no_mshrs         1881                       # number of cycles access was blocked (Cycle)
system.cpu.dcache.blockedCycles::no_targets            0                       # number of cycles access was blocked (Cycle)
system.cpu.dcache.blockedCauses::no_mshrs           63                       # number of times access was blocked (Count)
system.cpu.dcache.blockedCauses::no_targets            0                       # number of times access was blocked (Count)
system.cpu.dcache.avgBlocked::no_mshrs      29.857143                       # average number of cycles each access was blocked ((Cycle/Count))
system.cpu.dcache.avgBlocked::no_targets          nan                       # average number of cycles each access was blocked ((Cycle/Count))
system.cpu.dcache.writebacks::writebacks        64474                       # number of writebacks (Count)
system.cpu.dcache.writebacks::total             64474                       # number of writebacks (Count)
system.cpu.dcache.demandMshrHits::cpu.data        12923                       # number of demand (read+write) MSHR hits (Count)
system.cpu.dcache.demandMshrHits::total         12923                       # number of demand (read+write) MSHR hits (Count)
system.cpu.dcache.overallMshrHits::cpu.data        12923                       # number of overall MSHR hits (Count)
system.cpu.dcache.overallMshrHits::total        12923                       # number of overall MSHR hits (Count)
system.cpu.dcache.demandMshrMisses::cpu.data        70061                       # number of demand (read+write) MSHR misses (Count)
system.cpu.dcache.demandMshrMisses::total        70061                       # number of demand (read+write) MSHR misses (Count)
system.cpu.dcache.overallMshrMisses::cpu.data        70061                       # number of overall MSHR misses (Count)
system.cpu.dcache.overallMshrMisses::total        70061                       # number of overall MSHR misses (Count)
system.cpu.dcache.demandMshrMissLatency::cpu.data   6161546999                       # number of demand (read+write) MSHR miss ticks (Tick)
system.cpu.dcache.demandMshrMissLatency::total   6161546999                       # number of demand (read+write) MSHR miss ticks (Tick)
system.cpu.dcache.overallMshrMissLatency::cpu.data   6161546999                       # number of overall MSHR miss ticks (Tick)
system.cpu.dcache.overallMshrMissLatency::total   6161546999                       # number of overall MSHR miss ticks (Tick)
system.cpu.dcache.demandMshrMissRate::cpu.data     0.003084                       # mshr miss ratio for demand accesses (Ratio)
system.cpu.dcache.demandMshrMissRate::total     0.003084                       # mshr miss ratio for demand accesses (Ratio)
system.cpu.dcache.overallMshrMissRate::cpu.data     0.003084                       # mshr miss ratio for overall accesses (Ratio)
system.cpu.dcache.overallMshrMissRate::total     0.003084                       # mshr miss ratio for overall accesses (Ratio)
system.cpu.dcache.demandAvgMshrMissLatency::cpu.data 87945.461798                       # average overall mshr miss latency ((Tick/Count))
system.cpu.dcache.demandAvgMshrMissLatency::total 87945.461798                       # average overall mshr miss latency ((Tick/Count))
system.cpu.dcache.overallAvgMshrMissLatency::cpu.data 87945.461798                       # average overall mshr miss latency ((Tick/Count))
system.cpu.dcache.overallAvgMshrMissLatency::total 87945.461798                       # average overall mshr miss latency ((Tick/Count))
system.cpu.dcache.replacements                  69549                       # number of replacements (Count)
system.cpu.dcache.LockedRMWReadReq.hits::cpu.data           12                       # number of LockedRMWReadReq hits (Count)
system.cpu.dcache.LockedRMWReadReq.hits::total           12                       # number of LockedRMWReadReq hits (Count)
system.cpu.dcache.LockedRMWReadReq.accesses::cpu.data           12                       # number of LockedRMWReadReq accesses(hits+misses) (Count)
system.cpu.dcache.LockedRMWReadReq.accesses::total           12                       # number of LockedRMWReadReq accesses(hits+misses) (Count)
system.cpu.dcache.LockedRMWReadReq.mshrMissLatency::cpu.data       138000                       # number of LockedRMWReadReq MSHR miss ticks (Tick)
system.cpu.dcache.LockedRMWReadReq.mshrMissLatency::total       138000                       # number of LockedRMWReadReq MSHR miss ticks (Tick)
system.cpu.dcache.LockedRMWReadReq.avgMshrMissLatency::cpu.data          inf                       # average LockedRMWReadReq mshr miss latency ((Tick/Count))
system.cpu.dcache.LockedRMWReadReq.avgMshrMissLatency::total          inf                       # average LockedRMWReadReq mshr miss latency ((Tick/Count))
system.cpu.dcache.LockedRMWWriteReq.hits::cpu.data           12                       # number of LockedRMWWriteReq hits (Count)
system.cpu.dcache.LockedRMWWriteReq.hits::total           12                       # number of LockedRMWWriteReq hits (Count)
system.cpu.dcache.LockedRMWWriteReq.accesses::cpu.data           12                       # number of LockedRMWWriteReq accesses(hits+misses) (Count)
system.cpu.dcache.LockedRMWWriteReq.accesses::total           12                       # number of LockedRMWWriteReq accesses(hits+misses) (Count)
system.cpu.dcache.ReadReq.hits::cpu.data     15726084                       # number of ReadReq hits (Count)
system.cpu.dcache.ReadReq.hits::total        15726084                       # number of ReadReq hits (Count)
system.cpu.dcache.ReadReq.misses::cpu.data        31672                       # number of ReadReq misses (Count)
system.cpu.dcache.ReadReq.misses::total         31672                       # number of ReadReq misses (Count)
system.cpu.dcache.ReadReq.missLatency::cpu.data   1900943000                       # number of ReadReq miss ticks (Tick)
system.cpu.dcache.ReadReq.missLatency::total   1900943000                       # number of ReadReq miss ticks (Tick)
system.cpu.dcache.ReadReq.accesses::cpu.data     15757756                       # number of ReadReq accesses(hits+misses) (Count)
system.cpu.dcache.ReadReq.accesses::total     15757756                       # number of ReadReq accesses(hits+misses) (Count)
system.cpu.dcache.ReadReq.missRate::cpu.data     0.002010                       # miss rate for ReadReq accesses (Ratio)
system.cpu.dcache.ReadReq.missRate::total     0.002010                       # miss rate for ReadReq accesses (Ratio)
system.cpu.dcache.ReadReq.avgMissLatency::cpu.data 60019.670371                       # average ReadReq miss latency ((Tick/Count))
system.cpu.dcache.ReadReq.avgMissLatency::total 60019.670371                       # average ReadReq miss latency ((Tick/Count))
system.cpu.dcache.ReadReq.mshrHits::cpu.data         9172                       # number of ReadReq MSHR hits (Count)
system.cpu.dcache.ReadReq.mshrHits::total         9172                       # number of ReadReq MSHR hits (Count)
system.cpu.dcache.ReadReq.mshrMisses::cpu.data        22500                       # number of ReadReq MSHR misses (Count)
system.cpu.dcache.ReadReq.mshrMisses::total        22500                       # number of ReadReq MSHR misses (Count)
system.cpu.dcache.ReadReq.mshrMissLatency::cpu.data   1371791000                       # number of ReadReq MSHR miss ticks (Tick)
system.cpu.dcache.ReadReq.mshrMissLatency::total   1371791000                       # number of ReadReq MSHR miss ticks (Tick)
system.cpu.dcache.ReadReq.mshrMissRate::cpu.data     0.001428                       # mshr miss rate for ReadReq accesses (Ratio)
system.cpu.dcache.ReadReq.mshrMissRate::total     0.001428                       # mshr miss rate for ReadReq accesses (Ratio)
system.cpu.dcache.ReadReq.avgMshrMissLatency::cpu.data 60968.488889                       # average ReadReq mshr miss latency ((Tick/Count))
system.cpu.dcache.ReadReq.avgMshrMissLatency::total 60968.488889                       # average ReadReq mshr miss latency ((Tick/Count))
system.cpu.dcache.WriteReq.hits::cpu.data      6911705                       # number of WriteReq hits (Count)
system.cpu.dcache.WriteReq.hits::total        6911705                       # number of WriteReq hits (Count)
system.cpu.dcache.WriteReq.misses::cpu.data        51312                       # number of WriteReq misses (Count)
system.cpu.dcache.WriteReq.misses::total        51312                       # number of WriteReq misses (Count)
system.cpu.dcache.WriteReq.missLatency::cpu.data   4979988999                       # number of WriteReq miss ticks (Tick)
system.cpu.dcache.WriteReq.missLatency::total   4979988999                       # number of WriteReq miss ticks (Tick)
system.cpu.dcache.WriteReq.accesses::cpu.data      6963017                       # number of WriteReq accesses(hits+misses) (Count)
system.cpu.dcache.WriteReq.accesses::total      6963017                       # number of WriteReq accesses(hits+misses) (Count)
system.cpu.dcache.WriteReq.missRate::cpu.data     0.007369                       # miss rate for WriteReq accesses (Ratio)
system.cpu.dcache.WriteReq.missRate::total     0.007369                       # miss rate for WriteReq accesses (Ratio)
system.cpu.dcache.WriteReq.avgMissLatency::cpu.data 97053.106466                       # average WriteReq miss latency ((Tick/Count))
system.cpu.dcache.WriteReq.avgMissLatency::total 97053.106466                       # average WriteReq miss latency ((Tick/Count))
system.cpu.dcache.WriteReq.mshrHits::cpu.data         3751                       # number of WriteReq MSHR hits (Count)
system.cpu.dcache.WriteReq.mshrHits::total         3751                       # number of WriteReq MSHR hits (Count)
system.cpu.dcache.WriteReq.mshrMisses::cpu.data        47561                       # number of WriteReq MSHR misses (Count)
system.cpu.dcache.WriteReq.mshrMisses::total        47561                       # number of WriteReq MSHR misses (Count)
system.cpu.dcache.WriteReq.mshrMissLatency::cpu.data   4789755999                       # number of WriteReq MSHR miss ticks (Tick)
system.cpu.dcache.WriteReq.mshrMissLatency::total   4789755999                       # number of WriteReq MSHR miss ticks (Tick)
system.cpu.dcache.WriteReq.mshrMissRate::cpu.data     0.006831                       # mshr miss rate for WriteReq accesses (Ratio)
system.cpu.dcache.WriteReq.mshrMissRate::total     0.006831                       # mshr miss rate for WriteReq accesses (Ratio)
system.cpu.dcache.WriteReq.avgMshrMissLatency::cpu.data 100707.638590                       # average WriteReq mshr miss latency ((Tick/Count))
system.cpu.dcache.WriteReq.avgMshrMissLatency::total 100707.638590                       # average WriteReq mshr miss latency ((Tick/Count))
system.cpu.dcache.power_state.pwrStateResidencyTicks::UNDEFINED  62793091000                       # Cumulative time (in ticks) in various power states (Tick)
system.cpu.dcache.tags.tagsInUse           511.347767                       # Average ticks per tags in use ((Tick/Count))
system.cpu.dcache.tags.totalRefs             22707874                       # Total number of references to valid blocks. (Count)
system.cpu.dcache.tags.sampledRefs              70061                       # Sample count of references to valid blocks. (Count)
system.cpu.dcache.tags.avgRefs             324.115756                       # Average number of references to valid blocks. ((Count/Count))
system.cpu.dcache.tags.warmupTick              222000                       # The tick when the warmup percentage was hit. (Tick)
system.cpu.dcache.tags.occupancies::cpu.data   511.347767                       # Average occupied blocks per tick, per requestor ((Count/Tick))
system.cpu.dcache.tags.avgOccs::cpu.data     0.998726                       # Average percentage of cache occupancy ((Ratio/Tick))
system.cpu.dcache.tags.avgOccs::total        0.998726                       # Average percentage of cache occupancy ((Ratio/Tick))
system.cpu.dcache.tags.occupanciesTaskId::1024          512                       # Occupied blocks per task id (Count)
system.cpu.dcache.tags.ageTaskId_1024::0            4                       # Occupied blocks per task id, per block age (Count)
system.cpu.dcache.tags.ageTaskId_1024::1           60                       # Occupied blocks per task id, per block age (Count)
system.cpu.dcache.tags.ageTaskId_1024::2          360                       # Occupied blocks per task id, per block age (Count)
system.cpu.dcache.tags.ageTaskId_1024::3           45                       # Occupied blocks per task id, per block age (Count)
system.cpu.dcache.tags.ageTaskId_1024::4           43                       # Occupied blocks per task id, per block age (Count)
system.cpu.dcache.tags.ratioOccsTaskId::1024            1                       # Ratio of occupied blocks and all blocks, per task id (Ratio)
system.cpu.dcache.tags.tagAccesses           90953249                       # Number of tag accesses (Count)
system.cpu.dcache.tags.dataAccesses          90953249                       # Number of data accesses (Count)
system.cpu.dcache.tags.power_state.pwrStateResidencyTicks::UNDEFINED  62793091000                       # Cumulative time (in ticks) in various power states (Tick)
system.cpu.decode.idleCycles                 15184213                       # Number of cycles decode is idle (Cycle)
system.cpu.decode.blockedCycles              12593082                       # Number of cycles decode is blocked (Cycle)
system.cpu.decode.runCycles                  29554327                       # Number of cycles decode is running (Cycle)
system.cpu.decode.unblockCycles               2450670                       # Number of cycles decode is unblocking (Cycle)
system.cpu.decode.squashCycles                2984618                       # Number of cycles decode is squashing (Cycle)
system.cpu.decode.branchResolved              4288595                       # Number of times decode resolved a branch (Count)
system.cpu.decode.branchMispred                  5523                       # Number of times decode detected a branch misprediction (Count)
system.cpu.decode.decodedInsts              227044124                       # Number of instructions handled by decode (Count)
system.cpu.decode.squashedInsts                 39591                       # Number of squashed instructions handled by decode (Count)
system.cpu.fetch.icacheStallCycles           18507135                       # Number of cycles fetch is stalled on an Icache miss (Cycle)
system.cpu.fetch.insts                      126237020                       # Number of instructions fetch has processed (Count)
system.cpu.fetch.branches                    29445837                       # Number of branches that fetch encountered (Count)
system.cpu.fetch.predictedBranches            6442666                       # Number of branches that fetch has predicted taken (Count)
system.cpu.fetch.cycles                      40328521                       # Number of cycles fetch has run and was not squashing or blocked (Cycle)
system.cpu.fetch.squashCycles                 5980126                       # Number of cycles fetch has spent squashing (Cycle)
system.cpu.fetch.miscStallCycles                76130                       # Number of cycles fetch has spent waiting on interrupts, or bad addresses, or out of MSHRs (Cycle)
system.cpu.fetch.pendingTrapStallCycles        865017                       # Number of stall cycles due to pending traps (Cycle)
system.cpu.fetch.icacheWaitRetryStallCycles           44                       # Number of stall cycles due to full MSHR (Cycle)
system.cpu.fetch.cacheLines                  16606483                       # Number of cache lines fetched (Count)
system.cpu.fetch.icacheSquashes                695001                       # Number of outstanding Icache misses that were squashed (Count)
system.cpu.fetch.nisnDist::samples           62766910                       # Number of instructions fetched each cycle (Total) (Count)
system.cpu.fetch.nisnDist::mean              3.846195                       # Number of instructions fetched each cycle (Total) (Count)
system.cpu.fetch.nisnDist::stdev             3.676660                       # Number of instructions fetched each cycle (Total) (Count)
system.cpu.fetch.nisnDist::underflows               0      0.00%      0.00% # Number of instructions fetched each cycle (Total) (Count)
system.cpu.fetch.nisnDist::0                 26249060     41.82%     41.82% # Number of instructions fetched each cycle (Total) (Count)
system.cpu.fetch.nisnDist::1                  1386828      2.21%     44.03% # Number of instructions fetched each cycle (Total) (Count)
system.cpu.fetch.nisnDist::2                  2215896      3.53%     47.56% # Number of instructions fetched each cycle (Total) (Count)
system.cpu.fetch.nisnDist::3                  1588049      2.53%     50.09% # Number of instructions fetched each cycle (Total) (Count)
system.cpu.fetch.nisnDist::4                  2714551      4.32%     54.41% # Number of instructions fetched each cycle (Total) (Count)
system.cpu.fetch.nisnDist::5                  1420546      2.26%     56.68% # Number of instructions fetched each cycle (Total) (Count)
system.cpu.fetch.nisnDist::6                  1603572      2.55%     59.23% # Number of instructions fetched each cycle (Total) (Count)
system.cpu.fetch.nisnDist::7                  1458601      2.32%     61.56% # Number of instructions fetched each cycle (Total) (Count)
system.cpu.fetch.nisnDist::8                 24129807     38.44%    100.00% # Number of instructions fetched each cycle (Total) (Count)
system.cpu.fetch.nisnDist::overflows                0      0.00%    100.00% # Number of instructions fetched each cycle (Total) (Count)
system.cpu.fetch.nisnDist::min_value                0                       # Number of instructions fetched each cycle (Total) (Count)
system.cpu.fetch.nisnDist::max_value                8                       # Number of instructions fetched each cycle (Total) (Count)
system.cpu.fetch.nisnDist::total             62766910                       # Number of instructions fetched each cycle (Total) (Count)
system.cpu.fetch.branchRate                  0.468934                       # Number of branch fetches per cycle (Ratio)
system.cpu.fetch.rate                        2.010365                       # Number of inst fetches per cycle ((Count/Cycle))
system.cpu.icache.demandHits::cpu.inst       16605393                       # number of demand (read+write) hits (Count)
system.cpu.icache.demandHits::total          16605393                       # number of demand (read+write) hits (Count)
system.cpu.icache.overallHits::cpu.inst      16605393                       # number of overall hits (Count)
system.cpu.icache.overallHits::total         16605393                       # number of overall hits (Count)
system.cpu.icache.demandMisses::cpu.inst         1090                       # number of demand (read+write) misses (Count)
system.cpu.icache.demandMisses::total            1090                       # number of demand (read+write) misses (Count)
system.cpu.icache.overallMisses::cpu.inst         1090                       # number of overall misses (Count)
system.cpu.icache.overallMisses::total           1090                       # number of overall misses (Count)
system.cpu.icache.demandMissLatency::cpu.inst     87163000                       # number of demand (read+write) miss ticks (Tick)
system.cpu.icache.demandMissLatency::total     87163000                       # number of demand (read+write) miss ticks (Tick)
system.cpu.icache.overallMissLatency::cpu.inst     87163000                       # number of overall miss ticks (Tick)
system.cpu.icache.overallMissLatency::total     87163000                       # number of overall miss ticks (Tick)
system.cpu.icache.demandAccesses::cpu.inst     16606483                       # number of demand (read+write) accesses (Count)
system.cpu.icache.demandAccesses::total      16606483                       # number of demand (read+write) accesses (Count)
system.cpu.icache.overallAccesses::cpu.inst     16606483                       # number of overall (read+write) accesses (Count)
system.cpu.icache.overallAccesses::total     16606483                       # number of overall (read+write) accesses (Count)
system.cpu.icache.demandMissRate::cpu.inst     0.000066                       # miss rate for demand accesses (Ratio)
system.cpu.icache.demandMissRate::total      0.000066                       # miss rate for demand accesses (Ratio)
system.cpu.icache.overallMissRate::cpu.inst     0.000066                       # miss rate for overall accesses (Ratio)
system.cpu.icache.overallMissRate::total     0.000066                       # miss rate for overall accesses (Ratio)
system.cpu.icache.demandAvgMissLatency::cpu.inst 79966.055046                       # average overall miss latency in ticks ((Tick/Count))
system.cpu.icache.demandAvgMissLatency::total 79966.055046                       # average overall miss latency in ticks ((Tick/Count))
system.cpu.icache.overallAvgMissLatency::cpu.inst 79966.055046                       # average overall miss latency ((Tick/Count))
system.cpu.icache.overallAvgMissLatency::total 79966.055046                       # average overall miss latency ((Tick/Count))
system.cpu.icache.blockedCycles::no_mshrs          202                       # number of cycles access was blocked (Cycle)
system.cpu.icache.blockedCycles::no_targets            0                       # number of cycles access was blocked (Cycle)
system.cpu.icache.blockedCauses::no_mshrs            5                       # number of times access was blocked (Count)
system.cpu.icache.blockedCauses::no_targets            0                       # number of times access was blocked (Count)
system.cpu.icache.avgBlocked::no_mshrs      40.400000                       # average number of cycles each access was blocked ((Cycle/Count))
system.cpu.icache.avgBlocked::no_targets          nan                       # average number of cycles each access was blocked ((Cycle/Count))
system.cpu.icache.demandMshrHits::cpu.inst          257                       # number of demand (read+write) MSHR hits (Count)
system.cpu.icache.demandMshrHits::total           257                       # number of demand (read+write) MSHR hits (Count)
system.cpu.icache.overallMshrHits::cpu.inst          257                       # number of overall MSHR hits (Count)
system.cpu.icache.overallMshrHits::total          257                       # number of overall MSHR hits (Count)
system.cpu.icache.demandMshrMisses::cpu.inst          833                       # number of demand (read+write) MSHR misses (Count)
system.cpu.icache.demandMshrMisses::total          833                       # number of demand (read+write) MSHR misses (Count)
system.cpu.icache.overallMshrMisses::cpu.inst          833                       # number of overall MSHR misses (Count)
system.cpu.icache.overallMshrMisses::total          833                       # number of overall MSHR misses (Count)
system.cpu.icache.demandMshrMissLatency::cpu.inst     67907000                       # number of demand (read+write) MSHR miss ticks (Tick)
system.cpu.icache.demandMshrMissLatency::total     67907000                       # number of demand (read+write) MSHR miss ticks (Tick)
system.cpu.icache.overallMshrMissLatency::cpu.inst     67907000                       # number of overall MSHR miss ticks (Tick)
system.cpu.icache.overallMshrMissLatency::total     67907000                       # number of overall MSHR miss ticks (Tick)
system.cpu.icache.demandMshrMissRate::cpu.inst     0.000050                       # mshr miss ratio for demand accesses (Ratio)
system.cpu.icache.demandMshrMissRate::total     0.000050                       # mshr miss ratio for demand accesses (Ratio)
system.cpu.icache.overallMshrMissRate::cpu.inst     0.000050                       # mshr miss ratio for overall accesses (Ratio)
system.cpu.icache.overallMshrMissRate::total     0.000050                       # mshr miss ratio for overall accesses (Ratio)
system.cpu.icache.demandAvgMshrMissLatency::cpu.inst 81521.008403                       # average overall mshr miss latency ((Tick/Count))
system.cpu.icache.demandAvgMshrMissLatency::total 81521.008403                       # average overall mshr miss latency ((Tick/Count))
system.cpu.icache.overallAvgMshrMissLatency::cpu.inst 81521.008403                       # average overall mshr miss latency ((Tick/Count))
system.cpu.icache.overallAvgMshrMissLatency::total 81521.008403                       # average overall mshr miss latency ((Tick/Count))
system.cpu.icache.replacements                    401                       # number of replacements (Count)
system.cpu.icache.ReadReq.hits::cpu.inst     16605393                       # number of ReadReq hits (Count)
system.cpu.icache.ReadReq.hits::total        16605393                       # number of ReadReq hits (Count)
system.cpu.icache.ReadReq.misses::cpu.inst         1090                       # number of ReadReq misses (Count)
system.cpu.icache.ReadReq.misses::total          1090                       # number of ReadReq misses (Count)
system.cpu.icache.ReadReq.missLatency::cpu.inst     87163000                       # number of ReadReq miss ticks (Tick)
system.cpu.icache.ReadReq.missLatency::total     87163000                       # number of ReadReq miss ticks (Tick)
system.cpu.icache.ReadReq.accesses::cpu.inst     16606483                       # number of ReadReq accesses(hits+misses) (Count)
system.cpu.icache.ReadReq.accesses::total     16606483                       # number of ReadReq accesses(hits+misses) (Count)
system.cpu.icache.ReadReq.missRate::cpu.inst     0.000066                       # miss rate for ReadReq accesses (Ratio)
system.cpu.icache.ReadReq.missRate::total     0.000066                       # miss rate for ReadReq accesses (Ratio)
system.cpu.icache.ReadReq.avgMissLatency::cpu.inst 79966.055046                       # average ReadReq miss latency ((Tick/Count))
system.cpu.icache.ReadReq.avgMissLatency::total 79966.055046                       # average ReadReq miss latency ((Tick/Count))
system.cpu.icache.ReadReq.mshrHits::cpu.inst          257                       # number of ReadReq MSHR hits (Count)
system.cpu.icache.ReadReq.mshrHits::total          257                       # number of ReadReq MSHR hits (Count)
system.cpu.icache.ReadReq.mshrMisses::cpu.inst          833                       # number of ReadReq MSHR misses (Count)
system.cpu.icache.ReadReq.mshrMisses::total          833                       # number of ReadReq MSHR misses (Count)
system.cpu.icache.ReadReq.mshrMissLatency::cpu.inst     67907000                       # number of ReadReq MSHR miss ticks (Tick)
system.cpu.icache.ReadReq.mshrMissLatency::total     67907000                       # number of ReadReq MSHR miss ticks (Tick)
system.cpu.icache.ReadReq.mshrMissRate::cpu.inst     0.000050                       # mshr miss rate for ReadReq accesses (Ratio)
system.cpu.icache.ReadReq.mshrMissRate::total     0.000050                       # mshr miss rate for ReadReq accesses (Ratio)
system.cpu.icache.ReadReq.avgMshrMissLatency::cpu.inst 81521.008403                       # average ReadReq mshr miss latency ((Tick/Count))
system.cpu.icache.ReadReq.avgMshrMissLatency::total 81521.008403                       # average ReadReq mshr miss latency ((Tick/Count))
system.cpu.icache.power_state.pwrStateResidencyTicks::UNDEFINED  62793091000                       # Cumulative time (in ticks) in various power states (Tick)
system.cpu.icache.tags.tagsInUse           431.101854                       # Average ticks per tags in use ((Tick/Count))
system.cpu.icache.tags.totalRefs             16606226                       # Total number of references to valid blocks. (Count)
system.cpu.icache.tags.sampledRefs                833                       # Sample count of references to valid blocks. (Count)
system.cpu.icache.tags.avgRefs           19935.445378                       # Average number of references to valid blocks. ((Count/Count))
system.cpu.icache.tags.warmupTick              107000                       # The tick when the warmup percentage was hit. (Tick)
system.cpu.icache.tags.occupancies::cpu.inst   431.101854                       # Average occupied blocks per tick, per requestor ((Count/Tick))
system.cpu.icache.tags.avgOccs::cpu.inst     0.841996                       # Average percentage of cache occupancy ((Ratio/Tick))
system.cpu.icache.tags.avgOccs::total        0.841996                       # Average percentage of cache occupancy ((Ratio/Tick))
system.cpu.icache.tags.occupanciesTaskId::1024          432                       # Occupied blocks per task id (Count)
system.cpu.icache.tags.ageTaskId_1024::3            4                       # Occupied blocks per task id, per block age (Count)
system.cpu.icache.tags.ageTaskId_1024::4          428                       # Occupied blocks per task id, per block age (Count)
system.cpu.icache.tags.ratioOccsTaskId::1024     0.843750                       # Ratio of occupied blocks and all blocks, per task id (Ratio)
system.cpu.icache.tags.tagAccesses           33213799                       # Number of tag accesses (Count)
system.cpu.icache.tags.dataAccesses          33213799                       # Number of data accesses (Count)
system.cpu.icache.tags.power_state.pwrStateResidencyTicks::UNDEFINED  62793091000                       # Cumulative time (in ticks) in various power states (Tick)
system.cpu.iew.idleCycles                           0                       # Number of cycles IEW is idle (Cycle)
system.cpu.iew.squashCycles                   2984618                       # Number of cycles IEW is squashing (Cycle)
system.cpu.iew.blockCycles                   10298977                       # Number of cycles IEW is blocking (Cycle)
system.cpu.iew.unblockCycles                   920698                       # Number of cycles IEW is unblocking (Cycle)
system.cpu.iew.dispatchedInsts              186560183                       # Number of instructions dispatched to IQ (Count)
system.cpu.iew.dispSquashedInsts                  407                       # Number of squashed instructions skipped by dispatch (Count)
system.cpu.iew.dispLoadInsts                 22057483                       # Number of dispatched load instructions (Count)
system.cpu.iew.dispStoreInsts                14453416                       # Number of dispatched store instructions (Count)
system.cpu.iew.dispNonSpecInsts                 51304                       # Number of dispatched non-speculative instructions (Count)
system.cpu.iew.iqFullEvents                        26                       # Number of times the IQ has become full, causing a stall (Count)
system.cpu.iew.lsqFullEvents                   915049                       # Number of times the LSQ has become full, causing a stall (Count)
system.cpu.iew.memOrderViolationEvents           1260                       # Number of memory order violations (Count)
system.cpu.iew.predictedTakenIncorrect         182905                       # Number of branches that were predicted taken incorrectly (Count)
system.cpu.iew.predictedNotTakenIncorrect      3520795                       # Number of branches that were predicted not taken incorrectly (Count)
system.cpu.iew.branchMispredicts              3703700                       # Number of branch mispredicts detected at execute (Count)
system.cpu.iew.instsToCommit                153130706                       # Cumulative count of insts sent to commit (Count)
system.cpu.iew.writebackCount               151468468                       # Cumulative count of insts written-back (Count)
system.cpu.iew.producerInst                 108104639                       # Number of instructions producing a value (Count)
system.cpu.iew.consumerInst                 167786208                       # Number of instructions consuming a value (Count)
system.cpu.iew.wbRate                        2.412184                       # Insts written-back per cycle ((Count/Cycle))
system.cpu.iew.wbFanout                      0.644300                       # Average fanout of values written-back ((Count/Count))
system.cpu.interrupts.clk_domain.clock          16000                       # Clock period in ticks (Tick)
system.cpu.lsq0.forwLoads                     1725362                       # Number of loads that had data forwarded from stores (Count)
system.cpu.lsq0.squashedLoads                11404123                       # Number of loads squashed (Count)
system.cpu.lsq0.ignoredResponses                25599                       # Number of memory responses ignored because the instruction is squashed (Count)
system.cpu.lsq0.memOrderViolation                1260                       # Number of memory ordering violations (Count)
system.cpu.lsq0.squashedStores                7490371                       # Number of stores squashed (Count)
system.cpu.lsq0.rescheduledLoads                    0                       # Number of loads that were rescheduled (Count)
system.cpu.lsq0.blockedByCache                     51                       # Number of times an access to memory failed due to the cache being blocked (Count)
system.cpu.lsq0.loadToUse::samples           10653360                       # Distribution of cycle latency between the first time a load is issued and its completion (Unspecified)
system.cpu.lsq0.loadToUse::mean              3.340922                       # Distribution of cycle latency between the first time a load is issued and its completion (Unspecified)
system.cpu.lsq0.loadToUse::stdev             3.728446                       # Distribution of cycle latency between the first time a load is issued and its completion (Unspecified)
system.cpu.lsq0.loadToUse::0-9               10632758     99.81%     99.81% # Distribution of cycle latency between the first time a load is issued and its completion (Unspecified)
system.cpu.lsq0.loadToUse::10-19                   59      0.00%     99.81% # Distribution of cycle latency between the first time a load is issued and its completion (Unspecified)
system.cpu.lsq0.loadToUse::20-29                 6445      0.06%     99.87% # Distribution of cycle latency between the first time a load is issued and its completion (Unspecified)
system.cpu.lsq0.loadToUse::30-39                   12      0.00%     99.87% # Distribution of cycle latency between the first time a load is issued and its completion (Unspecified)
system.cpu.lsq0.loadToUse::40-49                  614      0.01%     99.87% # Distribution of cycle latency between the first time a load is issued and its completion (Unspecified)
system.cpu.lsq0.loadToUse::50-59                   15      0.00%     99.87% # Distribution of cycle latency between the first time a load is issued and its completion (Unspecified)
system.cpu.lsq0.loadToUse::60-69                  176      0.00%     99.88% # Distribution of cycle latency between the first time a load is issued and its completion (Unspecified)
system.cpu.lsq0.loadToUse::70-79                   32      0.00%     99.88% # Distribution of cycle latency between the first time a load is issued and its completion (Unspecified)
system.cpu.lsq0.loadToUse::80-89                 1989      0.02%     99.89% # Distribution of cycle latency between the first time a load is issued and its completion (Unspecified)
system.cpu.lsq0.loadToUse::90-99                 8735      0.08%     99.98% # Distribution of cycle latency between the first time a load is issued and its completion (Unspecified)
system.cpu.lsq0.loadToUse::100-109                 50      0.00%     99.98% # Distribution of cycle latency between the first time a load is issued and its completion (Unspecified)
system.cpu.lsq0.loadToUse::110-119               1639      0.02%     99.99% # Distribution of cycle latency between the first time a load is issued and its completion (Unspecified)
system.cpu.lsq0.loadToUse::120-129                174      0.00%     99.99% # Distribution of cycle latency between the first time a load is issued and its completion (Unspecified)
system.cpu.lsq0.loadToUse::130-139                 70      0.00%     99.99% # Distribution of cycle latency between the first time a load is issued and its completion (Unspecified)
system.cpu.lsq0.loadToUse::140-149                 69      0.00%    100.00% # Distribution of cycle latency between the first time a load is issued and its completion (Unspecified)
system.cpu.lsq0.loadToUse::150-159                 54      0.00%    100.00% # Distribution of cycle latency between the first time a load is issued and its completion (Unspecified)
system.cpu.lsq0.loadToUse::160-169                 48      0.00%    100.00% # Distribution of cycle latency between the first time a load is issued and its completion (Unspecified)
system.cpu.lsq0.loadToUse::170-179                 48      0.00%    100.00% # Distribution of cycle latency between the first time a load is issued and its completion (Unspecified)
system.cpu.lsq0.loadToUse::180-189                 28      0.00%    100.00% # Distribution of cycle latency between the first time a load is issued and its completion (Unspecified)
system.cpu.lsq0.loadToUse::190-199                 49      0.00%    100.00% # Distribution of cycle latency between the first time a load is issued and its completion (Unspecified)
system.cpu.lsq0.loadToUse::200-209                 29      0.00%    100.00% # Distribution of cycle latency between the first time a load is issued and its completion (Unspecified)
system.cpu.lsq0.loadToUse::210-219                 44      0.00%    100.00% # Distribution of cycle latency between the first time a load is issued and its completion (Unspecified)
system.cpu.lsq0.loadToUse::220-229                 24      0.00%    100.00% # Distribution of cycle latency between the first time a load is issued and its completion (Unspecified)
[...]
system.mem_ctrl.dram.bytesWritten::total      1614592                       # Number of bytes written to this memory (Byte)
system.mem_ctrl.dram.numReads::cpu.inst           607                       # Number of read requests responded to by this memory (Count)
system.mem_ctrl.dram.numReads::cpu.data         58060                       # Number of read requests responded to by this memory (Count)
system.mem_ctrl.dram.numReads::total            58667                       # Number of read requests responded to by this memory (Count)
system.mem_ctrl.dram.numWrites::writebacks        25228                       # Number of write requests responded to by this memory (Count)
system.mem_ctrl.dram.numWrites::total           25228                       # Number of write requests responded to by this memory (Count)
system.mem_ctrl.dram.bwRead::cpu.inst          618667                       # Total read bandwidth from this memory ((Byte/Second))
system.mem_ctrl.dram.bwRead::cpu.data        59175937                       # Total read bandwidth from this memory ((Byte/Second))
system.mem_ctrl.dram.bwRead::total           59794604                       # Total read bandwidth from this memory ((Byte/Second))
system.mem_ctrl.dram.bwInstRead::cpu.inst       618667                       # Instruction read bandwidth from this memory ((Byte/Second))
system.mem_ctrl.dram.bwInstRead::total         618667                       # Instruction read bandwidth from this memory ((Byte/Second))
system.mem_ctrl.dram.bwWrite::writebacks     25712893                       # Write bandwidth from this memory ((Byte/Second))
system.mem_ctrl.dram.bwWrite::total          25712893                       # Write bandwidth from this memory ((Byte/Second))
system.mem_ctrl.dram.bwTotal::writebacks     25712893                       # Total bandwidth to/from this memory ((Byte/Second))
system.mem_ctrl.dram.bwTotal::cpu.inst         618667                       # Total bandwidth to/from this memory ((Byte/Second))
system.mem_ctrl.dram.bwTotal::cpu.data       59175937                       # Total bandwidth to/from this memory ((Byte/Second))
system.mem_ctrl.dram.bwTotal::total          85507496                       # Total bandwidth to/from this memory ((Byte/Second))
system.mem_ctrl.dram.readBursts                 58664                       # Number of DRAM read bursts (Count)
system.mem_ctrl.dram.writeBursts                25199                       # Number of DRAM write bursts (Count)
system.mem_ctrl.dram.perBankRdBursts::0          3689                       # Per bank write bursts (Count)
system.mem_ctrl.dram.perBankRdBursts::1          3677                       # Per bank write bursts (Count)
system.mem_ctrl.dram.perBankRdBursts::2          3735                       # Per bank write bursts (Count)
system.mem_ctrl.dram.perBankRdBursts::3          3651                       # Per bank write bursts (Count)
system.mem_ctrl.dram.perBankRdBursts::4          3672                       # Per bank write bursts (Count)
system.mem_ctrl.dram.perBankRdBursts::5          3705                       # Per bank write bursts (Count)
system.mem_ctrl.dram.perBankRdBursts::6          3724                       # Per bank write bursts (Count)
system.mem_ctrl.dram.perBankRdBursts::7          3568                       # Per bank write bursts (Count)
system.mem_ctrl.dram.perBankRdBursts::8          3624                       # Per bank write bursts (Count)
system.mem_ctrl.dram.perBankRdBursts::9          3536                       # Per bank write bursts (Count)
system.mem_ctrl.dram.perBankRdBursts::10         3718                       # Per bank write bursts (Count)
system.mem_ctrl.dram.perBankRdBursts::11         3658                       # Per bank write bursts (Count)
system.mem_ctrl.dram.perBankRdBursts::12         3665                       # Per bank write bursts (Count)
system.mem_ctrl.dram.perBankRdBursts::13         3726                       # Per bank write bursts (Count)
system.mem_ctrl.dram.perBankRdBursts::14         3650                       # Per bank write bursts (Count)
system.mem_ctrl.dram.perBankRdBursts::15         3666                       # Per bank write bursts (Count)
system.mem_ctrl.dram.perBankWrBursts::0          1582                       # Per bank write bursts (Count)
system.mem_ctrl.dram.perBankWrBursts::1          1605                       # Per bank write bursts (Count)
system.mem_ctrl.dram.perBankWrBursts::2          1651                       # Per bank write bursts (Count)
system.mem_ctrl.dram.perBankWrBursts::3          1593                       # Per bank write bursts (Count)
system.mem_ctrl.dram.perBankWrBursts::4          1613                       # Per bank write bursts (Count)
system.mem_ctrl.dram.perBankWrBursts::5          1600                       # Per bank write bursts (Count)
system.mem_ctrl.dram.perBankWrBursts::6          1612                       # Per bank write bursts (Count)
system.mem_ctrl.dram.perBankWrBursts::7          1457                       # Per bank write bursts (Count)
system.mem_ctrl.dram.perBankWrBursts::8          1510                       # Per bank write bursts (Count)
system.mem_ctrl.dram.perBankWrBursts::9          1461                       # Per bank write bursts (Count)
system.mem_ctrl.dram.perBankWrBursts::10         1597                       # Per bank write bursts (Count)
system.mem_ctrl.dram.perBankWrBursts::11         1546                       # Per bank write bursts (Count)
system.mem_ctrl.dram.perBankWrBursts::12         1585                       # Per bank write bursts (Count)
system.mem_ctrl.dram.perBankWrBursts::13         1609                       # Per bank write bursts (Count)
system.mem_ctrl.dram.perBankWrBursts::14         1582                       # Per bank write bursts (Count)
system.mem_ctrl.dram.perBankWrBursts::15         1596                       # Per bank write bursts (Count)
system.mem_ctrl.dram.totQLat                474609750                       # Total ticks spent queuing (Tick)
system.mem_ctrl.dram.totBusLat              293320000                       # Total ticks spent in databus transfers (Tick)
system.mem_ctrl.dram.totMemAccLat          1574559750                       # Total ticks spent from burst creation until serviced by the DRAM (Tick)
system.mem_ctrl.dram.avgQLat                  8090.31                       # Average queueing delay per DRAM burst ((Tick/Count))
system.mem_ctrl.dram.avgBusLat                5000.00                       # Average bus latency per DRAM burst ((Tick/Count))
system.mem_ctrl.dram.avgMemAccLat            26840.31                       # Average memory access latency per DRAM burst ((Tick/Count))
system.mem_ctrl.dram.readRowHits                45712                       # Number of row buffer hits during reads (Count)
system.mem_ctrl.dram.writeRowHits               21329                       # Number of row buffer hits during writes (Count)
system.mem_ctrl.dram.readRowHitRate             77.92                       # Row buffer hit rate for reads (Ratio)
system.mem_ctrl.dram.writeRowHitRate            84.64                       # Row buffer hit rate for writes (Ratio)
system.mem_ctrl.dram.bytesPerActivate::samples        16821                       # Bytes accessed per row activation (Byte)
system.mem_ctrl.dram.bytesPerActivate::mean   319.071637                       # Bytes accessed per row activation (Byte)
system.mem_ctrl.dram.bytesPerActivate::gmean   218.477935                       # Bytes accessed per row activation (Byte)
system.mem_ctrl.dram.bytesPerActivate::stdev   290.612523                       # Bytes accessed per row activation (Byte)
system.mem_ctrl.dram.bytesPerActivate::0-127         3385     20.12%     20.12% # Bytes accessed per row activation (Byte)
system.mem_ctrl.dram.bytesPerActivate::128-255         7375     43.84%     63.97% # Bytes accessed per row activation (Byte)
system.mem_ctrl.dram.bytesPerActivate::256-383         1357      8.07%     72.03% # Bytes accessed per row activation (Byte)
system.mem_ctrl.dram.bytesPerActivate::384-511          793      4.71%     76.75% # Bytes accessed per row activation (Byte)
system.mem_ctrl.dram.bytesPerActivate::512-639          850      5.05%     81.80% # Bytes accessed per row activation (Byte)
system.mem_ctrl.dram.bytesPerActivate::640-767          633      3.76%     85.57% # Bytes accessed per row activation (Byte)
system.mem_ctrl.dram.bytesPerActivate::768-895          835      4.96%     90.53% # Bytes accessed per row activation (Byte)
system.mem_ctrl.dram.bytesPerActivate::896-1023          517      3.07%     93.60% # Bytes accessed per row activation (Byte)
system.mem_ctrl.dram.bytesPerActivate::1024-1151         1076      6.40%    100.00% # Bytes accessed per row activation (Byte)
system.mem_ctrl.dram.bytesPerActivate::total        16821                       # Bytes accessed per row activation (Byte)
system.mem_ctrl.dram.bytesRead                3754496                       # Total bytes read (Byte)
system.mem_ctrl.dram.bytesWritten             1612736                       # Total bytes written (Byte)
system.mem_ctrl.dram.avgRdBW                59.791546                       # Average DRAM read bandwidth in MiBytes/s ((Byte/Second))
system.mem_ctrl.dram.avgWrBW                25.683335                       # Average DRAM write bandwidth in MiBytes/s ((Byte/Second))
system.mem_ctrl.dram.peakBW                  12800.00                       # Theoretical peak bandwidth in MiByte/s ((Byte/Second))
system.mem_ctrl.dram.busUtil                     0.67                       # Data bus utilization in percentage (Ratio)
system.mem_ctrl.dram.busUtilRead                 0.47                       # Data bus utilization in percentage for reads (Ratio)
system.mem_ctrl.dram.busUtilWrite                0.20                       # Data bus utilization in percentage for writes (Ratio)
system.mem_ctrl.dram.pageHitRate                79.94                       # Row buffer hit rate, read and write combined (Ratio)
system.mem_ctrl.dram.power_state.pwrStateResidencyTicks::UNDEFINED  62793091000                       # Cumulative time (in ticks) in various power states (Tick)
system.mem_ctrl.dram.rank0.actEnergy         60461520                       # Energy for activate commands per rank (pJ) (Joule)
system.mem_ctrl.dram.rank0.preEnergy         32132265                       # Energy for precharge commands per rank (pJ) (Joule)
system.mem_ctrl.dram.rank0.readEnergy       210065940                       # Energy for read commands per rank (pJ) (Joule)
system.mem_ctrl.dram.rank0.writeEnergy       66361860                       # Energy for write commands per rank (pJ) (Joule)
system.mem_ctrl.dram.rank0.refreshEnergy 4956456960.000001                       # Energy for refresh commands per rank (pJ) (Joule)
system.mem_ctrl.dram.rank0.actBackEnergy  14307479940                       # Energy for active background per rank (pJ) (Joule)
system.mem_ctrl.dram.rank0.preBackEnergy  12064142880                       # Energy for precharge background per rank (pJ) (Joule)
system.mem_ctrl.dram.rank0.actPowerDownEnergy            0                       # Energy for active power-down per rank (pJ) (Joule)
system.mem_ctrl.dram.rank0.prePowerDownEnergy            0                       # Energy for precharge power-down per rank (pJ) (Joule)
system.mem_ctrl.dram.rank0.selfRefreshEnergy            0                       # Energy for self refresh per rank (pJ) (Joule)
system.mem_ctrl.dram.rank0.totalEnergy    31697101365                       # Total energy per rank (pJ) (Joule)
system.mem_ctrl.dram.rank0.averagePower    504.786448                       # Core power per rank (mW) (Watt)
system.mem_ctrl.dram.rank0.totalIdleTime            0                       # Total Idle time Per DRAM Rank (Tick)
system.mem_ctrl.dram.rank0.pwrStateTime::IDLE  31225798250                       # Time in different power states (Tick)
system.mem_ctrl.dram.rank0.pwrStateTime::REF   2096640000                       # Time in different power states (Tick)
system.mem_ctrl.dram.rank0.pwrStateTime::SREF            0                       # Time in different power states (Tick)
system.mem_ctrl.dram.rank0.pwrStateTime::PRE_PDN            0                       # Time in different power states (Tick)
system.mem_ctrl.dram.rank0.pwrStateTime::ACT  29470652750                       # Time in different power states (Tick)
system.mem_ctrl.dram.rank0.pwrStateTime::ACT_PDN            0                       # Time in different power states (Tick)
system.mem_ctrl.dram.rank1.actEnergy         59647560                       # Energy for activate commands per rank (pJ) (Joule)
system.mem_ctrl.dram.rank1.preEnergy         31703430                       # Energy for precharge commands per rank (pJ) (Joule)
system.mem_ctrl.dram.rank1.readEnergy       208795020                       # Energy for read commands per rank (pJ) (Joule)
system.mem_ctrl.dram.rank1.writeEnergy       65176920                       # Energy for write commands per rank (pJ) (Joule)
system.mem_ctrl.dram.rank1.refreshEnergy 4956456960.000001                       # Energy for refresh commands per rank (pJ) (Joule)
system.mem_ctrl.dram.rank1.actBackEnergy  13625750250                       # Energy for active background per rank (pJ) (Joule)
system.mem_ctrl.dram.rank1.preBackEnergy  12638231040                       # Energy for precharge background per rank (pJ) (Joule)
system.mem_ctrl.dram.rank1.actPowerDownEnergy            0                       # Energy for active power-down per rank (pJ) (Joule)
system.mem_ctrl.dram.rank1.prePowerDownEnergy            0                       # Energy for precharge power-down per rank (pJ) (Joule)
system.mem_ctrl.dram.rank1.selfRefreshEnergy            0                       # Energy for self refresh per rank (pJ) (Joule)
system.mem_ctrl.dram.rank1.totalEnergy    31585761180                       # Total energy per rank (pJ) (Joule)
system.mem_ctrl.dram.rank1.averagePower    503.013320                       # Core power per rank (mW) (Watt)
system.mem_ctrl.dram.rank1.totalIdleTime            0                       # Total Idle time Per DRAM Rank (Tick)
system.mem_ctrl.dram.rank1.pwrStateTime::IDLE  32726384500                       # Time in different power states (Tick)
system.mem_ctrl.dram.rank1.pwrStateTime::REF   2096640000                       # Time in different power states (Tick)
system.mem_ctrl.dram.rank1.pwrStateTime::SREF            0                       # Time in different power states (Tick)
system.mem_ctrl.dram.rank1.pwrStateTime::PRE_PDN            0                       # Time in different power states (Tick)
system.mem_ctrl.dram.rank1.pwrStateTime::ACT  27970066500                       # Time in different power states (Tick)
system.mem_ctrl.dram.rank1.pwrStateTime::ACT_PDN            0                       # Time in different power states (Tick)
system.mem_ctrl.power_state.pwrStateResidencyTicks::UNDEFINED  62793091000                       # Cumulative time (in ticks) in various power states (Tick)
system.membus.transDist::ReadResp               11448                       # Transaction distribution (Count)
system.membus.transDist::WritebackDirty         25228                       # Transaction distribution (Count)
system.membus.transDist::CleanEvict               219                       # Transaction distribution (Count)
system.membus.transDist::ReadExReq              47219                       # Transaction distribution (Count)
system.membus.transDist::ReadExResp             47219                       # Transaction distribution (Count)
system.membus.transDist::ReadSharedReq          11448                       # Transaction distribution (Count)
system.membus.pktCount_system.l2cache.mem_side_port::system.mem_ctrl.port       142781                       # Packet count per connected requestor and responder (Count)
system.membus.pktCount_system.l2cache.mem_side_port::total       142781                       # Packet count per connected requestor and responder (Count)
system.membus.pktCount::total                  142781                       # Packet count per connected requestor and responder (Count)
system.membus.pktSize_system.l2cache.mem_side_port::system.mem_ctrl.port      5369280                       # Cumulative packet size per connected requestor and responder (Byte)
system.membus.pktSize_system.l2cache.mem_side_port::total      5369280                       # Cumulative packet size per connected requestor and responder (Byte)
system.membus.pktSize::total                  5369280                       # Cumulative packet size per connected requestor and responder (Byte)
system.membus.snoops                                0                       # Total snoops (Count)
system.membus.snoopTraffic                          0                       # Total snoop traffic (Byte)
system.membus.snoopFanout::samples              58667                       # Request fanout histogram (Count)
system.membus.snoopFanout::mean                     0                       # Request fanout histogram (Count)
system.membus.snoopFanout::stdev                    0                       # Request fanout histogram (Count)
system.membus.snoopFanout::underflows               0      0.00%      0.00% # Request fanout histogram (Count)
system.membus.snoopFanout::0                    58667    100.00%    100.00% # Request fanout histogram (Count)
system.membus.snoopFanout::1                        0      0.00%    100.00% # Request fanout histogram (Count)
system.membus.snoopFanout::overflows                0      0.00%    100.00% # Request fanout histogram (Count)
system.membus.snoopFanout::min_value                0                       # Request fanout histogram (Count)
system.membus.snoopFanout::max_value                0                       # Request fanout histogram (Count)
system.membus.snoopFanout::total                58667                       # Request fanout histogram (Count)
system.membus.power_state.pwrStateResidencyTicks::UNDEFINED  62793091000                       # Cumulative time (in ticks) in various power states (Tick)
system.membus.reqLayer2.occupancy           185026000                       # Layer occupancy (ticks) (Tick)
system.membus.reqLayer2.utilization               0.0                       # Layer utilization (Ratio)
system.membus.respLayer0.occupancy          310731000                       # Layer occupancy (ticks) (Tick)
system.membus.respLayer0.utilization              0.0                       # Layer utilization (Ratio)
system.membus.snoop_filter.totRequests          84114                       # Total number of requests made to the snoop filter. (Count)
system.membus.snoop_filter.hitSingleRequests        25447                       # Number of requests hitting in the snoop filter with a single holder of the requested data. (Count)
system.membus.snoop_filter.hitMultiRequests            0                       # Number of requests hitting in the snoop filter with multiple (>1) holders of the requested data. (Count)
system.membus.snoop_filter.totSnoops                0                       # Total number of snoops made to the snoop filter. (Count)
system.membus.snoop_filter.hitSingleSnoops            0                       # Number of snoops hitting in the snoop filter with a single holder of the requested data. (Count)
system.membus.snoop_filter.hitMultiSnoops            0                       # Number of snoops hitting in the snoop filter with multiple (>1) holders of the requested data. (Count)
system.workload.inst.arm                            0                       # number of arm instructions executed (Count)
system.workload.inst.quiesce                        0                       # number of quiesce instructions executed (Count)

---------- End Simulation Statistics   ----------
